6
*****
C          0.96620       -0.07020        0.06270
C          0.45950       -1.45550       -0.30450
N          0.03920       -2.60460       -0.60900
H          0.60590        0.20710        1.05710
H          0.60590        0.66320       -0.66390
H          2.05970       -0.06170        0.06490
