input_GMX.gro created by acpype (v: 2023.10.27) on Sat Nov  2 08:14:06 2024
 OpenBabel11022408143D

  6  5  0  0  0  0  0  0  0  0999 V2000
    0.9700   -0.0700    0.0600 C   0  0  0  0  0  0  0  0  0  0  0  0
    0.4600   -1.4600   -0.3000 C   0  0  0  0  0  2  0  0  0  0  0  0
    0.0400   -2.6100   -0.6100 N   0  0  0  0  0  1  0  0  0  0  0  0
    0.6100    0.2100    1.0600 H   0  0  0  0  0  0  0  0  0  0  0  0
    0.6100    0.6600   -0.6600 H   0  0  0  0  0  0  0  0  0  0  0  0
    2.0600   -0.0600    0.0700 H   0  0  0  0  0  0  0  0  0  0  0  0
  1  6  1  0  0  0  0
  1  4  1  0  0  0  0
  2  1  1  0  0  0  0
  3  2  1  0  0  0  0
  5  1  1  0  0  0  0
M  END
