input_GMX.gro created by acpype (v: 2022.7.21) on Tue Aug 29 17:39:13 2023
 OpenBabel09232314093D

  9  8  0  0  0  0  0  0  0  0999 V2000
    0.9500    0.0500   -0.0700 C   0  0  0  0  0  0  0  0  0  0  0  0
    0.4500    1.2600    0.6900 C   0  0  0  0  0  0  0  0  0  0  0  0
    0.9200    2.4500    0.0700 O   0  0  0  0  0  0  0  0  0  0  0  0
    0.6000    0.0700   -1.1000 H   0  0  0  0  0  0  0  0  0  0  0  0
    0.5900   -0.8700    0.4000 H   0  0  0  0  0  0  0  0  0  0  0  0
    2.0400    0.0300   -0.0900 H   0  0  0  0  0  0  0  0  0  0  0  0
   -0.6500    1.2900    0.6900 H   0  0  0  0  0  0  0  0  0  0  0  0
    0.8000    1.2500    1.7300 H   0  0  0  0  0  0  0  0  0  0  0  0
    1.8900    2.4200    0.0700 H   0  0  0  0  0  0  0  0  0  0  0  0
  1  5  1  0  0  0  0
  1  2  1  0  0  0  0
  2  7  1  0  0  0  0
  2  8  1  0  0  0  0
  3  9  1  0  0  0  0
  3  2  1  0  0  0  0
  4  1  1  0  0  0  0
  6  1  1  0  0  0  0
M  END
