23
*****
O          2.98320       -2.31370        2.32670
C          2.29640       -1.21890        1.73670
C          0.84760       -1.08140        2.24740
C          0.04550       -2.34510        1.95710
O          0.79460       -0.85230        3.67110
C          1.17710        0.47900        4.04080
C          0.98860        0.70620        5.54740
C         -0.47700        0.67750        5.98020
O          1.69380       -0.29610        6.27860
H          2.99660       -2.14360        3.28930
H          2.88470       -0.31490        1.93390
H          2.29840       -1.37010        0.64530
H          0.37060       -0.24440        1.72820
H          0.22670       -3.12050        2.70800
H         -1.02390       -2.11660        1.99650
H          0.26510       -2.74930        0.96570
H          2.23660        0.61390        3.80930
H          0.59010        1.21120        3.47290
H          1.41100        1.67890        5.81500
H         -0.92100       -0.31380        5.84190
H         -0.55170        0.90310        7.04980
H         -1.06980        1.41420        5.43130
H          1.34170       -1.15130        5.96540
