eta.bdf
 OpenBabel02022418583D

  9  8  0  0  0  0  0  0  0  0999 V2000
    3.8500    3.5300    1.9500 C   0  0  0  0  0  0  0  0  0  0  0  0
    3.0400    3.5300    3.2500 C   0  0  0  0  0  0  0  0  0  0  0  0
    3.9300    3.5300    4.3500 O   0  0  0  0  0  0  0  0  0  0  0  0
    4.4800    2.6500    1.8800 H   0  0  0  0  0  0  0  0  0  0  0  0
    3.1900    3.5400    1.0800 H   0  0  0  0  0  0  0  0  0  0  0  0
    4.4900    4.4100    1.8900 H   0  0  0  0  0  0  0  0  0  0  0  0
    2.3900    2.6500    3.3000 H   0  0  0  0  0  0  0  0  0  0  0  0
    2.4000    4.4100    3.3100 H   0  0  0  0  0  0  0  0  0  0  0  0
    3.4400    3.5800    5.1500 H   0  0  0  0  0  0  0  0  0  0  0  0
  1  2  1  0  0  0  0
  2  7  1  0  0  0  0
  2  8  1  0  0  0  0
  2  3  1  0  0  0  0
  3  9  1  0  0  0  0
  4  1  1  0  0  0  0
  5  1  1  0  0  0  0
  6  1  1  0  0  0  0
M  END
