59
*****
C         -0.87800        0.68400        2.50650
C         -1.07020       -0.80140        2.83510
O         -0.44500       -1.69830        1.91410
C          0.97170       -1.57000        1.77830
C          1.77530       -1.97560        3.02360
O          1.57650       -3.31910        3.47510
C          1.84420       -4.37060        2.54210
C          3.31080       -4.45870        2.09300
O          3.59900       -5.52730        1.18770
C          2.87540       -5.59340       -0.04310
C          2.92930       -4.33380       -0.91600
O          2.50940       -4.50880       -2.26950
C          1.17310       -4.93640       -2.52930
C          0.06870       -3.97250       -2.08350
O         -1.22920       -4.26990       -2.61530
C         -1.77170       -5.56850       -2.36450
C         -1.93410       -5.90860       -0.88210
O         -2.55780       -7.16480       -0.61680
C         -1.91020       -8.33780       -1.11030
C         -0.47410       -8.53720       -0.61220
O          0.09620       -9.79130       -0.99660
C          0.38330       -9.88380       -2.40060
C          1.24270      -11.12290       -2.64480
O          0.53640      -12.29640       -2.25080
O         -1.24290        0.98730        1.16350
H          0.16380        0.98830        2.63960
H         -1.49000        1.29860        3.17390
H         -0.74700       -1.02070        3.85710
H         -2.14100       -1.02960        2.78240
H          1.24650       -2.20590        0.94030
H          1.23150       -0.55190        1.47390
H          2.84460       -1.81190        2.84560
H          1.50380       -1.33060        3.86440
H          1.58210       -5.30910        3.04070
H          1.16020       -4.29030        1.69600
H          3.67110       -3.51860        1.66470
H          3.92850       -4.62560        2.98130
H          3.31080       -6.42640       -0.60630
H          1.83940       -5.88590        0.16370
H          2.37090       -3.51180       -0.46470
H          3.97170       -3.99440       -0.96170
H          1.09650       -5.05680       -3.61660
H          1.02130       -5.93560       -2.11390
H          0.01070       -3.90200       -0.99400
H          0.31820       -2.96300       -2.43310
H         -2.76210       -5.59790       -2.83880
H         -1.17630       -6.31860       -2.89480
H         -0.97920       -5.85980       -0.34980
H         -2.56340       -5.13920       -0.41710
H         -2.50970       -9.19310       -0.77900
H         -1.96480       -8.35030       -2.20410
H          0.18000       -7.72650       -0.94220
H         -0.46890       -8.49900        0.48290
H         -0.55900       -9.97870       -2.94400
H          0.92230       -8.99060       -2.73320
H          1.49110      -11.21330       -3.70530
H          2.17010      -11.08170       -2.06510
H          0.25270      -12.13260       -1.32990
H         -2.01090        0.43630        0.93130
