12
*****
C          1.38210       -0.21360        0.00790
C          0.50990       -1.30200       -0.00070
C         -0.86900       -1.09080       -0.00990
C         -1.37560        0.20890       -0.00620
C         -0.50330        1.29710        0.00420
C          0.87550        1.08620        0.00970
H          2.45620       -0.37810        0.01330
H          0.90450       -2.31450       -0.00130
H         -1.54850       -1.93890       -0.01890
H         -2.44980        0.37330       -0.01230
H         -0.89800        2.30980        0.00790
H          1.55510        1.93410        0.01580
