33
*****
O         -0.09460        1.65890       -0.35890
C          1.25240        1.25560       -0.59000
C          1.36220        0.17520       -1.68490
C          0.52910       -1.04870       -1.29670
O          0.87790        0.59480       -2.96530
C          1.50260        1.70490       -3.60720
C          2.90360        1.49210       -4.24030
C          4.02250        1.34730       -3.21580
O          2.99080        0.37510       -5.14350
C          2.30160        0.59900       -6.38210
C          2.56380       -0.54550       -7.37600
C          4.01610       -0.65340       -7.81380
O          2.17280       -1.78900       -6.79090
H          2.60810       -1.82150       -5.92180
H         -0.51270        1.75190       -1.24140
H          1.81890        2.15320       -0.84930
H          1.65270        0.87740        0.35770
H          2.40280       -0.14430       -1.77790
H         -0.54460       -0.81260       -1.27740
H          0.65680       -1.84350       -2.03790
H          0.82180       -1.43930       -0.31690
H          0.81450        1.98250       -4.41250
H          1.51920        2.57030       -2.93440
H          3.12960        2.40640       -4.80730
H          4.25620        0.29940       -3.00210
H          4.94370        1.78740       -3.61870
H          3.80440        1.87510       -2.28280
H          1.22660        0.64350       -6.17620
H          2.62700        1.54820       -6.82290
H          1.94010       -0.38790       -8.26310
H          4.66650       -0.95960       -6.98710
H          4.11550       -1.42490       -8.58720
H          4.38360        0.29110       -8.22690
