input_GMX.gro created by acpype (v: 2022.7.21) on Tue Jun 27 11:48:15 2023
 OpenBabel06292306043D

 23 22  0  0  1  0  0  0  0  0999 V2000
   -2.3800   -2.0200    1.2400 C   0  0  0  0  0  0  0  0  0  0  0  0
   -0.9300   -1.7000    0.9200 C   0  0  1  0  0  0  0  0  0  0  0  0
   -0.1000   -2.7700    1.4000 O   0  0  0  0  0  0  0  0  0  0  0  0
   -0.6500   -1.5200   -0.5800 C   0  0  0  0  0  0  0  0  0  0  0  0
   -1.4100   -0.5300   -1.2600 O   0  0  0  0  0  0  0  0  0  0  0  0
   -1.3000    0.8100   -0.8000 C   0  0  0  0  0  0  0  0  0  0  0  0
    0.1000    1.4400   -0.8300 C   0  0  1  0  0  0  0  0  0  0  0  0
    0.7700    1.4200   -2.1900 C   0  0  0  0  0  0  0  0  0  0  0  0
   -0.0100    2.8100   -0.4000 O   0  0  0  0  0  0  0  0  0  0  0  0
   -2.7100   -2.9300    0.7200 H   0  0  0  0  0  0  0  0  0  0  0  0
   -3.0500   -1.2000    0.9700 H   0  0  0  0  0  0  0  0  0  0  0  0
   -2.5000   -2.2200    2.3100 H   0  0  0  0  0  0  0  0  0  0  0  0
   -0.6400   -0.8000    1.4700 H   0  0  0  0  0  0  0  0  0  0  0  0
   -0.3300   -2.9300    2.3400 H   0  0  0  0  0  0  0  0  0  0  0  0
    0.4200   -1.3400   -0.7400 H   0  0  0  0  0  0  0  0  0  0  0  0
   -0.8500   -2.4800   -1.0800 H   0  0  0  0  0  0  0  0  0  0  0  0
   -1.9700    1.4100   -1.4300 H   0  0  0  0  0  0  0  0  0  0  0  0
   -1.7300    0.8900    0.2100 H   0  0  0  0  0  0  0  0  0  0  0  0
    0.7500    0.9300   -0.1100 H   0  0  0  0  0  0  0  0  0  0  0  0
    0.1700    1.9400   -2.9400 H   0  0  0  0  0  0  0  0  0  0  0  0
    1.7300    1.9500   -2.1500 H   0  0  0  0  0  0  0  0  0  0  0  0
    0.9600    0.4000   -2.5400 H   0  0  0  0  0  0  0  0  0  0  0  0
   -0.4700    3.3000   -1.1000 H   0  0  0  0  0  0  0  0  0  0  0  0
  1 12  1  0  0  0  0
  2  1  1  0  0  0  0
  2  3  1  0  0  0  0
  2 13  1  1  0  0  0
  3 14  1  0  0  0  0
  4  2  1  0  0  0  0
  5  6  1  0  0  0  0
  5  4  1  0  0  0  0
  6 18  1  0  0  0  0
  7  6  1  0  0  0  0
  7  9  1  0  0  0  0
  7 19  1  1  0  0  0
  8 21  1  0  0  0  0
  8  7  1  0  0  0  0
 10  1  1  0  0  0  0
 11  1  1  0  0  0  0
 15  4  1  0  0  0  0
 16  4  1  0  0  0  0
 17  6  1  0  0  0  0
 20  8  1  0  0  0  0
 22  8  1  0  0  0  0
 23  9  1  0  0  0  0
M  END
