173
*****
O          2.10470       -5.12030        5.52520
C          1.32870       -6.30760        5.40300
C          1.20300       -7.04790        6.74880
C          0.17010       -8.17050        6.54480
O          2.38490       -7.69110        7.25060
C          3.65580       -7.02130        7.28770
C          3.88210       -5.95460        8.39050
C          3.56600       -6.55380        9.77340
O          5.23830       -5.47280        8.53420
C          6.04320       -5.06500        7.42410
C          5.71020       -3.69190        6.79420
C          5.96520       -2.60450        7.85610
O          6.53400       -3.34990        5.64960
C          6.32090       -3.89890        4.31750
C          4.95690       -3.55770        3.60920
C          4.80410       -2.01950        3.70310
O          4.74390       -3.78360        2.18460
C          4.75710       -4.97620        1.38270
C          3.50190       -5.95560        1.32680
C          2.17150       -5.35240        1.65630
O          3.36260       -6.88350        0.20180
C          2.67150       -6.65900       -1.06130
C          1.08720       -6.49150       -1.29500
C          0.27710       -7.64040       -0.68700
O          0.58560       -5.16880       -0.93180
C         -0.27580       -4.42040       -1.86740
C          0.08900       -2.83600       -1.89920
C          1.53610       -2.83080       -2.42380
O         -0.82410       -1.97780       -2.70610
C         -0.86660       -0.48700       -2.44050
C         -2.19520        0.35030       -3.10140
C         -3.39290       -0.49340       -2.68920
O         -2.38360        1.80800       -2.70460
C         -3.36600        2.68320       -3.48310
C         -3.43020        4.36200       -3.09910
C         -1.96840        4.78270       -2.97390
O         -4.20380        5.28920       -4.04140
C         -4.54330        6.72790       -3.60950
C         -5.62310        7.64550       -4.60050
C         -6.78160        6.69880       -4.90260
O         -6.13090        8.98260       -4.05620
C         -6.86060        9.97650       -4.97380
C         -7.19350       11.54040       -4.34650
C         -5.89510       12.00850       -3.69370
O         -7.71470       12.61180       -5.30020
C         -8.21550       13.92560       -4.72130
C         -8.90330       15.06980       -5.74810
C         -9.89840       14.34310       -6.65070
O         -9.58350       16.19490       -5.03020
C         -9.81390       17.52430       -5.68730
C        -10.14140       18.72540       -4.61250
C         -8.96600       18.63660       -3.61790
O        -10.03900       20.08930       -5.06500
C        -10.98380       21.15930       -5.20580
C        -12.32280       21.52800       -4.46190
C        -13.41140       20.49610       -4.73100
O        -12.17540       21.79060       -3.05530
C        -12.64760       23.07860       -2.54780
C        -11.53410       23.68350       -1.62810
C        -10.56450       24.48260       -2.48850
O        -11.94050       24.61460       -0.62120
C        -12.59310       24.11590        0.54310
C        -11.89530       23.01150        1.36820
C        -10.47040       23.39080        1.78970
O        -12.58150       22.68070        2.59010
C        -13.97350       22.36940        2.50450
C        -14.31460       21.13540        1.65170
C        -15.77390       20.72400        1.84210
O        -14.12650       21.43330        0.26510
H        -14.37490       20.64320       -0.24610
H          1.48690       -4.39950        5.74230
H          0.33450       -6.01130        5.03750
H          1.78290       -6.94570        4.63980
H          0.83800       -6.35630        7.51710
H          0.56470       -8.93890        5.86490
H         -0.06020       -8.67730        7.48680
H         -0.76840       -7.79780        6.11770
H          4.37860       -7.82540        7.47790
H          3.91160       -6.64070        6.29990
H          3.22270       -5.09610        8.23060
H          4.26650       -7.36730       10.01180
H          3.70830       -5.80500       10.56390
H          2.54880       -6.94390        9.84610
H          7.05800       -4.98230        7.84710
H          6.11660       -5.86190        6.68540
H          4.65740       -3.64990        6.50660
H          6.77450       -1.90590        7.57250
H          5.06330       -1.97920        7.99830
H          6.20280       -2.99820        8.85280
H          7.12080       -3.44190        3.72270
H          6.54060       -4.96730        4.33020
H          4.15660       -4.02650        4.17890
H          5.27390       -1.51930        2.87670
H          3.75060       -1.73380        3.62430
H          5.19290       -1.59870        4.63300
H          4.86610       -4.59700        0.35880
H          5.69610       -5.52010        1.57240
H          3.72940       -6.64910        2.14340
H          1.87280       -4.63780        0.88670
H          1.41370       -6.15510        1.68880
H          2.17710       -4.84980        2.60730
H          3.21290       -5.91080       -1.63940
H          2.87480       -7.61780       -1.57580
H          0.95440       -6.58810       -2.38900
H          0.39460       -7.71440        0.39530
H         -0.79480       -7.53340       -0.88980
H          0.58720       -8.60690       -1.11440
H         -0.22090       -4.84470       -2.87270
H         -1.31750       -4.53880       -1.52300
H          0.07900       -2.48340       -0.86400
H          1.57440       -3.15820       -3.47010
H          1.99640       -1.84370       -2.35870
H          2.16910       -3.51580       -1.85340
H         -0.87120       -0.34290       -1.35470
H          0.05340       -0.04730       -2.84590
H         -2.07170        0.33410       -4.19870
H         -3.51470       -0.48840       -1.59510
H         -4.32800       -0.15090       -3.12530
H         -3.25690       -1.54450       -2.98530
H         -3.11040        2.59390       -4.54400
H         -4.37300        2.27960       -3.33190
H         -3.92280        4.44330       -2.12340
H         -1.45680        4.67310       -3.93630
H         -1.85500        5.82010       -2.64890
H         -1.45270        4.14610       -2.24840
H         -4.98240        6.67950       -2.60800
H         -3.60810        7.29820       -3.55590
H         -5.08420        7.87730       -5.52650
H         -7.39410        6.54080       -4.00630
H         -7.42940        7.07430       -5.69310
H         -6.39950        5.72110       -5.22390
H         -6.25910       10.10570       -5.87930
H         -7.82620        9.53810       -5.25660
H         -7.97060       11.41350       -3.58290
H         -5.16170       12.28950       -4.45240
H         -6.05560       12.87370       -3.04390
H         -5.46910       11.21180       -3.07230
H         -8.96120       13.69440       -3.95360
H         -7.37260       14.43160       -4.23470
H         -8.10150       15.50220       -6.35930
H        -10.82610       14.12100       -6.11420
H        -10.16540       14.94310       -7.52690
H         -9.47550       13.40100       -7.01600
H         -8.91940       17.80380       -6.25980
H        -10.65350       17.45310       -6.39270
H        -11.09020       18.54110       -4.09460
H         -8.06560       19.04030       -4.08560
H         -9.15630       19.25540       -2.72930
H         -8.74880       17.62580       -3.30350
H        -11.21330       21.18580       -6.28010
H        -10.36700       22.05540       -5.03470
H        -12.66130       22.45190       -4.94930
H        -13.33920       19.67620       -4.02650
H        -14.40980       20.94120       -4.58470
H        -13.36590       20.13780       -5.76630
H        -12.89610       23.78080       -3.35520
H        -13.57500       22.92140       -1.98510
H        -10.97660       22.86290       -1.16580
H         -9.72770       24.83140       -1.87270
H        -11.04830       25.38420       -2.88700
H        -10.16770       23.89620       -3.32170
H        -12.72390       24.98920        1.21350
H        -13.60560       23.83610        0.26290
H        -11.82630       22.09660        0.77470
H        -10.31470       23.26800        2.87400
H         -9.73510       22.76250        1.28740
H        -10.22350       24.43590        1.54940
H        -14.28850       22.18470        3.53680
H        -14.51750       23.25560        2.16440
H        -13.63970       20.30990        1.90420
H        -16.30840       20.65040        0.88910
H        -15.82800       19.74890        2.33530
H        -16.31970       21.43200        2.47440
