input_GMX.gro created by acpype (v: 2023.10.27) on Tue Sep  3 05:19:50 2024
 OpenBabel09032405193D

 31 30  0  0  0  0  0  0  0  0999 V2000
    2.0800    4.9000   -0.0400 C   0  0  0  0  0  0  0  0  0  0  0  0
    3.4100    4.1500   -0.1200 C   0  0  0  0  0  0  0  0  0  0  0  0
    3.9700    3.8100    1.1600 O   0  0  0  0  0  0  0  0  0  0  0  0
    3.1800    2.9600    2.0000 C   0  0  0  0  0  0  0  0  0  0  0  0
    2.8200    1.6100    1.3700 C   0  0  0  0  0  0  0  0  0  0  0  0
    2.3500    0.6300    2.2900 O   0  0  0  0  0  0  0  0  0  0  0  0
    1.1800    0.9400    3.0400 C   0  0  0  0  0  0  0  0  0  0  0  0
   -0.1000    1.0900    2.2000 C   0  0  0  0  0  0  0  0  0  0  0  0
   -1.2900    1.0500    2.9900 O   0  0  0  0  0  0  0  0  0  0  0  0
   -1.4800    2.1900    3.8300 C   0  0  0  0  0  0  0  0  0  0  0  0
   -2.8600    2.1300    4.4800 C   0  0  0  0  0  0  0  0  0  0  0  0
   -3.0200    3.2000    5.4000 O   0  0  0  0  0  0  0  0  0  0  0  0
    2.1900    6.0900    0.7400 O   0  0  0  0  0  0  0  0  0  0  0  0
    1.3000    4.2900    0.4100 H   0  0  0  0  0  0  0  0  0  0  0  0
    1.7600    5.1900   -1.0400 H   0  0  0  0  0  0  0  0  0  0  0  0
    3.3200    3.2500   -0.7300 H   0  0  0  0  0  0  0  0  0  0  0  0
    4.1500    4.7900   -0.6000 H   0  0  0  0  0  0  0  0  0  0  0  0
    3.7700    2.7900    2.9100 H   0  0  0  0  0  0  0  0  0  0  0  0
    2.2900    3.5000    2.3300 H   0  0  0  0  0  0  0  0  0  0  0  0
    2.0900    1.7300    0.5700 H   0  0  0  0  0  0  0  0  0  0  0  0
    3.7100    1.1900    0.9000 H   0  0  0  0  0  0  0  0  0  0  0  0
    1.0300    0.1200    3.7500 H   0  0  0  0  0  0  0  0  0  0  0  0
    1.3500    1.8300    3.6500 H   0  0  0  0  0  0  0  0  0  0  0  0
   -0.0800    2.0100    1.6000 H   0  0  0  0  0  0  0  0  0  0  0  0
   -0.1600    0.2600    1.4900 H   0  0  0  0  0  0  0  0  0  0  0  0
   -0.7100    2.2000    4.6100 H   0  0  0  0  0  0  0  0  0  0  0  0
   -1.3800    3.1100    3.2400 H   0  0  0  0  0  0  0  0  0  0  0  0
   -3.6400    2.2000    3.7200 H   0  0  0  0  0  0  0  0  0  0  0  0
   -3.0100    1.1800    5.0000 H   0  0  0  0  0  0  0  0  0  0  0  0
   -2.7000    2.9000    6.2700 H   0  0  0  0  0  0  0  0  0  0  0  0
    3.0800    6.4600    0.6100 H   0  0  0  0  0  0  0  0  0  0  0  0
  1 14  1  0  0  0  0
  1 13  1  0  0  0  0
  2  1  1  0  0  0  0
  2  3  1  0  0  0  0
  3  4  1  0  0  0  0
  4 19  1  0  0  0  0
  4 18  1  0  0  0  0
  5  4  1  0  0  0  0
  5  6  1  0  0  0  0
  6  7  1  0  0  0  0
  7 23  1  0  0  0  0
  7 22  1  0  0  0  0
  8  9  1  0  0  0  0
  8  7  1  0  0  0  0
  9 10  1  0  0  0  0
 10 11  1  0  0  0  0
 10 26  1  0  0  0  0
 11 29  1  0  0  0  0
 11 12  1  0  0  0  0
 12 30  1  0  0  0  0
 15  1  1  0  0  0  0
 16  2  1  0  0  0  0
 17  2  1  0  0  0  0
 20  5  1  0  0  0  0
 21  5  1  0  0  0  0
 24  8  1  0  0  0  0
 25  8  1  0  0  0  0
 27 10  1  0  0  0  0
 28 11  1  0  0  0  0
 31 13  1  0  0  0  0
M  END
