31
*****
C          2.08180        4.90360       -0.03800
C          3.41180        4.14750       -0.11580
O          3.96840        3.80660        1.15620
C          3.18120        2.96210        1.99980
C          2.81780        1.61170        1.37150
O          2.34950        0.62930        2.29330
C          1.17460        0.94040        3.03990
C         -0.09860        1.08720        2.20010
O         -1.29450        1.04780        2.98660
C         -1.47590        2.18620        3.82640
C         -2.85460        2.12830        4.48160
O         -3.02490        3.20000        5.40390
O          2.18570        6.08870        0.74440
H          1.29860        4.28640        0.40660
H          1.75720        5.18780       -1.04360
H          3.31460        3.25040       -0.73250
H          4.15430        4.78980       -0.60020
H          3.76950        2.78590        2.90780
H          2.28640        3.50130        2.32700
H          2.08710        1.73440        0.56630
H          3.71480        1.19370        0.89810
H          1.02820        0.11620        3.74730
H          1.35020        1.82760        3.65480
H         -0.07980        2.00550        1.60270
H         -0.15670        0.25690        1.48600
H         -0.70780        2.20370        4.60640
H         -1.38380        3.10990        3.24280
H         -3.63710        2.20320        3.71960
H         -3.00830        1.17710        5.00330
H         -2.69700        2.89480        6.26640
H          3.07520        6.46120        0.61150
