input_GMX.gro created by acpype (v: 2022.7.21) on Fri Sep 15 04:05:10 2023
 OpenBabel09152313053D

 20 19  0  0  0  0  0  0  0  0999 V2000
    1.1400   -1.5000    2.0200 C   0  0  0  0  0  0  0  0  0  0  0  0
    0.5700   -0.2200    1.4200 C   0  0  0  0  0  0  0  0  0  0  0  0
    1.0000    1.0100    2.2200 C   0  0  0  0  0  0  0  0  0  0  0  0
    0.4800    2.3400    1.6300 C   0  0  0  0  0  0  0  0  0  0  0  0
   -1.0500    2.4000    1.5900 C   0  0  0  0  0  0  0  0  0  0  0  0
    1.0200    3.5100    2.4500 C   0  0  0  0  0  0  0  0  0  0  0  0
    2.2300   -1.5000    2.0000 H   0  0  0  0  0  0  0  0  0  0  0  0
    0.7900   -2.3700    1.4500 H   0  0  0  0  0  0  0  0  0  0  0  0
    0.8100   -1.6300    3.0500 H   0  0  0  0  0  0  0  0  0  0  0  0
    0.9100   -0.1300    0.3800 H   0  0  0  0  0  0  0  0  0  0  0  0
   -0.5200   -0.3100    1.4000 H   0  0  0  0  0  0  0  0  0  0  0  0
    0.6600    0.9100    3.2500 H   0  0  0  0  0  0  0  0  0  0  0  0
    2.0900    1.0500    2.2500 H   0  0  0  0  0  0  0  0  0  0  0  0
    0.8500    2.4400    0.6000 H   0  0  0  0  0  0  0  0  0  0  0  0
   -1.4800    2.2600    2.5900 H   0  0  0  0  0  0  0  0  0  0  0  0
   -1.3900    3.3800    1.2200 H   0  0  0  0  0  0  0  0  0  0  0  0
   -1.4700    1.6500    0.9200 H   0  0  0  0  0  0  0  0  0  0  0  0
    2.1100    3.5200    2.4500 H   0  0  0  0  0  0  0  0  0  0  0  0
    0.6800    4.4700    2.0200 H   0  0  0  0  0  0  0  0  0  0  0  0
    0.6700    3.4700    3.4900 H   0  0  0  0  0  0  0  0  0  0  0  0
  1  9  1  0  0  0  0
  2  1  1  0  0  0  0
  2  3  1  0  0  0  0
  3 13  1  0  0  0  0
  3 12  1  0  0  0  0
  4  3  1  0  0  0  0
  4  6  1  0  0  0  0
  5  4  1  0  0  0  0
  5 15  1  0  0  0  0
  6 20  1  0  0  0  0
  7  1  1  0  0  0  0
  8  1  1  0  0  0  0
 10  2  1  0  0  0  0
 11  2  1  0  0  0  0
 14  4  1  0  0  0  0
 16  5  1  0  0  0  0
 17  5  1  0  0  0  0
 18  6  1  0  0  0  0
 19  6  1  0  0  0  0
M  END
