20
*****
C          1.13530       -1.50310        2.01650
C          0.57130       -0.22440        1.41550
C          0.99620        1.01010        2.21480
C          0.47500        2.33800        1.62980
C         -1.05270        2.40480        1.59100
C          1.01560        3.51420        2.44740
H          2.23030       -1.49840        1.99660
H          0.78990       -2.37140        1.44620
H          0.80980       -1.62670        3.05350
H          0.91050       -0.13120        0.37760
H         -0.52050       -0.31030        1.39660
H          0.65610        0.90670        3.25300
H          2.09320        1.04590        2.24720
H          0.84960        2.43980        0.60330
H         -1.48050        2.25680        2.58770
H         -1.38840        3.37930        1.21950
H         -1.47020        1.64640        0.92260
H          2.11060        3.51590        2.45370
H          0.68350        4.46820        2.02440
H          0.67060        3.46740        3.48610
