14
*****
C         -1.84800       -0.00090        0.04070
C         -1.14940        1.20300        0.01790
C          0.24890        1.19970       -0.01970
C          0.96110       -0.00270        0.00200
C          0.24760       -1.20340       -0.02150
C         -1.15010       -1.20640        0.01640
N          2.34850       -0.00280       -0.18780
H         -2.93460       -0.00070        0.05590
H         -1.68850        2.14620        0.01230
H          0.77690        2.14770       -0.07310
H          0.77470       -2.15160       -0.07570
H         -1.69030       -2.14850        0.00870
H          2.80670       -0.84670        0.13950
H          2.80730        0.83990        0.14220
