input_GMX.gro created by acpype (v: 2023.10.27) on Tue Sep  3 05:19:41 2024
 OpenBabel09032405193D

 17 16  0  0  0  0  0  0  0  0999 V2000
    0.6200    1.7700    1.3800 C   0  0  0  0  0  0  0  0  0  0  0  0
    0.4600    1.3900   -0.1000 C   0  0  0  0  0  0  0  0  0  0  0  0
    1.0700    2.3200   -0.9900 O   0  0  0  0  0  0  0  0  0  0  0  0
    2.4900    2.2800   -0.9600 C   0  0  0  0  0  0  0  0  0  0  0  0
    3.0500    3.2000   -2.0300 C   0  0  0  0  0  0  0  0  0  0  0  0
    4.4700    3.2600   -1.9300 O   0  0  0  0  0  0  0  0  0  0  0  0
   -0.1300    0.8900    2.2200 O   0  0  0  0  0  0  0  0  0  0  0  0
    0.2800    2.7900    1.5500 H   0  0  0  0  0  0  0  0  0  0  0  0
    1.6700    1.7200    1.6800 H   0  0  0  0  0  0  0  0  0  0  0  0
    0.8300    0.3800   -0.2900 H   0  0  0  0  0  0  0  0  0  0  0  0
   -0.6100    1.3600   -0.3400 H   0  0  0  0  0  0  0  0  0  0  0  0
    2.8600    2.6100    0.0200 H   0  0  0  0  0  0  0  0  0  0  0  0
    2.8500    1.2600   -1.1300 H   0  0  0  0  0  0  0  0  0  0  0  0
    2.7900    2.8400   -3.0300 H   0  0  0  0  0  0  0  0  0  0  0  0
    2.6300    4.2100   -1.9400 H   0  0  0  0  0  0  0  0  0  0  0  0
    4.7100    4.1800   -1.7100 H   0  0  0  0  0  0  0  0  0  0  0  0
    0.1700   -0.0200    2.0300 H   0  0  0  0  0  0  0  0  0  0  0  0
  1  8  1  0  0  0  0
  1  9  1  0  0  0  0
  1  7  1  0  0  0  0
  2  1  1  0  0  0  0
  3  4  1  0  0  0  0
  3  2  1  0  0  0  0
  4 12  1  0  0  0  0
  5 15  1  0  0  0  0
  5  6  1  0  0  0  0
  5  4  1  0  0  0  0
  6 16  1  0  0  0  0
 10  2  1  0  0  0  0
 11  2  1  0  0  0  0
 13  4  1  0  0  0  0
 14  5  1  0  0  0  0
 17  7  1  0  0  0  0
M  END
