input_GMX.gro created by acpype (v: 2023.10.27) on Tue Sep  3 05:20:24 2024
 OpenBabel09032405203D

 45 44  0  0  0  0  0  0  0  0999 V2000
    3.8300   -4.9900   -4.8300 C   0  0  0  0  0  0  0  0  0  0  0  0
    3.7100   -3.6800   -4.0500 C   0  0  0  0  0  0  0  0  0  0  0  0
    2.3700   -3.3900   -3.6500 O   0  0  0  0  0  0  0  0  0  0  0  0
    1.9000   -4.1900   -2.5700 C   0  0  0  0  0  0  0  0  0  0  0  0
    0.5500   -3.6500   -2.0900 C   0  0  0  0  0  0  0  0  0  0  0  0
   -0.1200   -4.4400   -1.1100 O   0  0  0  0  0  0  0  0  0  0  0  0
    0.5900   -4.7500    0.0900 C   0  0  0  0  0  0  0  0  0  0  0  0
    1.0200   -3.5300    0.9200 C   0  0  0  0  0  0  0  0  0  0  0  0
    1.6600   -3.8600    2.1600 O   0  0  0  0  0  0  0  0  0  0  0  0
    2.9000   -4.5600    2.0900 C   0  0  0  0  0  0  0  0  0  0  0  0
    4.0600   -3.7200    1.5300 C   0  0  0  0  0  0  0  0  0  0  0  0
    5.2300   -4.4600    1.1800 O   0  0  0  0  0  0  0  0  0  0  0  0
    6.0300   -5.0100    2.2400 C   0  0  0  0  0  0  0  0  0  0  0  0
    6.7400   -3.9800    3.1300 C   0  0  0  0  0  0  0  0  0  0  0  0
    7.7000   -4.5700    4.0200 O   0  0  0  0  0  0  0  0  0  0  0  0
    8.9200   -4.9500    3.3800 C   0  0  0  0  0  0  0  0  0  0  0  0
    9.9700   -5.3100    4.4300 C   0  0  0  0  0  0  0  0  0  0  0  0
    9.5200   -6.4100    5.2200 O   0  0  0  0  0  0  0  0  0  0  0  0
    3.0100   -4.9900   -6.0000 O   0  0  0  0  0  0  0  0  0  0  0  0
    3.5300   -5.8500   -4.2200 H   0  0  0  0  0  0  0  0  0  0  0  0
    4.8600   -5.1400   -5.1600 H   0  0  0  0  0  0  0  0  0  0  0  0
    4.3800   -3.6800   -3.1800 H   0  0  0  0  0  0  0  0  0  0  0  0
    4.0200   -2.8500   -4.7000 H   0  0  0  0  0  0  0  0  0  0  0  0
    1.7800   -5.2300   -2.8900 H   0  0  0  0  0  0  0  0  0  0  0  0
    2.6300   -4.1700   -1.7500 H   0  0  0  0  0  0  0  0  0  0  0  0
    0.6600   -2.6200   -1.7300 H   0  0  0  0  0  0  0  0  0  0  0  0
   -0.1200   -3.5800   -2.9500 H   0  0  0  0  0  0  0  0  0  0  0  0
   -0.0800   -5.3600    0.7000 H   0  0  0  0  0  0  0  0  0  0  0  0
    1.4400   -5.4000   -0.1500 H   0  0  0  0  0  0  0  0  0  0  0  0
    1.6600   -2.8600    0.3400 H   0  0  0  0  0  0  0  0  0  0  0  0
    0.1200   -2.9500    1.1700 H   0  0  0  0  0  0  0  0  0  0  0  0
    3.1500   -4.8500    3.1200 H   0  0  0  0  0  0  0  0  0  0  0  0
    2.7900   -5.5100    1.5500 H   0  0  0  0  0  0  0  0  0  0  0  0
    3.7300   -3.2600    0.6000 H   0  0  0  0  0  0  0  0  0  0  0  0
    4.3000   -2.9000    2.2100 H   0  0  0  0  0  0  0  0  0  0  0  0
    5.4400   -5.7200    2.8400 H   0  0  0  0  0  0  0  0  0  0  0  0
    6.7800   -5.6100    1.7300 H   0  0  0  0  0  0  0  0  0  0  0  0
    7.2100   -3.1900    2.5400 H   0  0  0  0  0  0  0  0  0  0  0  0
    5.9900   -3.4900    3.7600 H   0  0  0  0  0  0  0  0  0  0  0  0
    8.7300   -5.8200    2.7500 H   0  0  0  0  0  0  0  0  0  0  0  0
    9.3000   -4.1200    2.7700 H   0  0  0  0  0  0  0  0  0  0  0  0
   10.9100   -5.6000    3.9500 H   0  0  0  0  0  0  0  0  0  0  0  0
   10.1600   -4.4700    5.1000 H   0  0  0  0  0  0  0  0  0  0  0  0
    8.6500   -6.1400    5.5700 H   0  0  0  0  0  0  0  0  0  0  0  0
    2.6000   -4.1100   -6.0800 H   0  0  0  0  0  0  0  0  0  0  0  0
  1 20  1  0  0  0  0
  1  2  1  0  0  0  0
  2  3  1  0  0  0  0
  2 22  1  0  0  0  0
  3  4  1  0  0  0  0
  4  5  1  0  0  0  0
  4 25  1  0  0  0  0
  5 26  1  0  0  0  0
  5  6  1  0  0  0  0
  6  7  1  0  0  0  0
  7 28  1  0  0  0  0
  7  8  1  0  0  0  0
  8 31  1  0  0  0  0
  8  9  1  0  0  0  0
 10  9  1  0  0  0  0
 10 32  1  0  0  0  0
 11 10  1  0  0  0  0
 11 35  1  0  0  0  0
 12 11  1  0  0  0  0
 12 13  1  0  0  0  0
 13 36  1  0  0  0  0
 13 14  1  0  0  0  0
 14 39  1  0  0  0  0
 14 15  1  0  0  0  0
 16 15  1  0  0  0  0
 16 17  1  0  0  0  0
 17 43  1  0  0  0  0
 17 18  1  0  0  0  0
 18 44  1  0  0  0  0
 19  1  1  0  0  0  0
 21  1  1  0  0  0  0
 23  2  1  0  0  0  0
 24  4  1  0  0  0  0
 27  5  1  0  0  0  0
 29  7  1  0  0  0  0
 30  8  1  0  0  0  0
 33 10  1  0  0  0  0
 34 11  1  0  0  0  0
 37 13  1  0  0  0  0
 38 14  1  0  0  0  0
 40 16  1  0  0  0  0
 41 16  1  0  0  0  0
 42 17  1  0  0  0  0
 45 19  1  0  0  0  0
M  END
