input_GMX.gro created by acpype (v: 2022.7.21) on Mon Dec 11 14:52:07 2023
 OpenBabel12122300193D

103102  0  0  1  0  0  0  0  0999 V2000
   -2.4900   -7.7800    0.0100 O   0  0  0  0  0  0  0  0  0  0  0  0
   -2.0600   -8.9800    0.6600 C   0  0  0  0  0  0  0  0  0  0  0  0
   -3.0300   -9.4000    1.7700 C   0  0  1  0  0  0  0  0  0  0  0  0
   -2.6100  -10.8100    2.2300 C   0  0  0  0  0  0  0  0  0  0  0  0
   -3.0400   -8.5800    2.9500 O   0  0  0  0  0  0  0  0  0  0  0  0
   -3.1600   -7.1400    2.8700 C   0  0  0  0  0  0  0  0  0  0  0  0
   -4.5500   -6.5400    2.5200 C   0  0  1  0  0  0  0  0  0  0  0  0
   -5.6100   -7.1200    3.4800 C   0  0  0  0  0  0  0  0  0  0  0  0
   -4.7500   -5.1200    2.6800 O   0  0  0  0  0  0  0  0  0  0  0  0
   -3.7900   -4.1400    2.2900 C   0  0  0  0  0  0  0  0  0  0  0  0
   -3.7600   -3.7300    0.7800 C   0  0  1  0  0  0  0  0  0  0  0  0
   -5.0500   -3.1100    0.2600 C   0  0  0  0  0  0  0  0  0  0  0  0
   -2.5700   -2.9900    0.5000 O   0  0  0  0  0  0  0  0  0  0  0  0
   -2.4800   -1.5700    0.6200 C   0  0  0  0  0  0  0  0  0  0  0  0
   -1.5600   -1.0600    1.7700 C   0  0  1  0  0  0  0  0  0  0  0  0
   -0.3600   -2.0000    1.9400 C   0  0  0  0  0  0  0  0  0  0  0  0
   -1.1200    0.2900    1.4400 O   0  0  0  0  0  0  0  0  0  0  0  0
   -1.1200    1.2500    2.5200 C   0  0  0  0  0  0  0  0  0  0  0  0
   -1.4800    2.6900    2.0100 C   0  0  1  0  0  0  0  0  0  0  0  0
   -2.8000    2.6100    1.2300 C   0  0  0  0  0  0  0  0  0  0  0  0
   -1.6700    3.5600    3.1500 O   0  0  0  0  0  0  0  0  0  0  0  0
   -0.9300    4.8100    3.2200 C   0  0  0  0  0  0  0  0  0  0  0  0
   -0.3300    4.9100    4.6600 C   0  0  1  0  0  0  0  0  0  0  0  0
    0.8300    3.9000    4.7300 C   0  0  0  0  0  0  0  0  0  0  0  0
    0.2400    6.1500    5.1100 O   0  0  0  0  0  0  0  0  0  0  0  0
   -0.5600    7.2400    5.5900 C   0  0  0  0  0  0  0  0  0  0  0  0
   -1.6400    7.0200    6.6900 C   0  0  1  0  0  0  0  0  0  0  0  0
   -1.1300    6.4900    8.0300 C   0  0  0  0  0  0  0  0  0  0  0  0
   -2.5000    8.1800    6.8000 O   0  0  0  0  0  0  0  0  0  0  0  0
   -2.2100    9.2600    7.7000 C   0  0  0  0  0  0  0  0  0  0  0  0
   -1.3400   10.4000    7.1000 C   0  0  1  0  0  0  0  0  0  0  0  0
   -1.9500   10.9100    5.8000 C   0  0  0  0  0  0  0  0  0  0  0  0
   -1.2500   11.5500    7.9500 O   0  0  0  0  0  0  0  0  0  0  0  0
   -0.6100   11.4300    9.2100 C   0  0  0  0  0  0  0  0  0  0  0  0
    0.8700   10.9900    9.2000 C   0  0  1  0  0  0  0  0  0  0  0  0
    1.7300   11.9000    8.3100 C   0  0  0  0  0  0  0  0  0  0  0  0
    1.4700   11.0200   10.5000 O   0  0  0  0  0  0  0  0  0  0  0  0
    0.9100   10.1800   11.5000 C   0  0  0  0  0  0  0  0  0  0  0  0
    0.9300    8.6800   11.1800 C   0  0  1  0  0  0  0  0  0  0  0  0
    2.3400    8.1500   10.9000 C   0  0  0  0  0  0  0  0  0  0  0  0
    0.3500    7.9600   12.2700 O   0  0  0  0  0  0  0  0  0  0  0  0
    0.5800    7.0200   12.1800 H   0  0  0  0  0  0  0  0  0  0  0  0
   -3.1400   -8.0400   -0.6700 H   0  0  0  0  0  0  0  0  0  0  0  0
   -1.9900   -9.7600   -0.1100 H   0  0  0  0  0  0  0  0  0  0  0  0
   -1.0600   -8.8100    1.0600 H   0  0  0  0  0  0  0  0  0  0  0  0
   -4.0600   -9.4500    1.3800 H   0  0  0  0  0  0  0  0  0  0  0  0
   -1.6200  -10.7700    2.7000 H   0  0  0  0  0  0  0  0  0  0  0  0
   -3.2900  -11.2100    2.9700 H   0  0  0  0  0  0  0  0  0  0  0  0
   -2.5600  -11.5100    1.3900 H   0  0  0  0  0  0  0  0  0  0  0  0
   -2.9000   -6.7900    3.8800 H   0  0  0  0  0  0  0  0  0  0  0  0
   -2.3700   -6.7400    2.2300 H   0  0  0  0  0  0  0  0  0  0  0  0
   -4.8200   -6.8200    1.5000 H   0  0  0  0  0  0  0  0  0  0  0  0
   -5.4100   -6.8000    4.5100 H   0  0  0  0  0  0  0  0  0  0  0  0
   -6.6000   -6.7400    3.2300 H   0  0  0  0  0  0  0  0  0  0  0  0
   -5.6500   -8.2200    3.4600 H   0  0  0  0  0  0  0  0  0  0  0  0
   -4.0400   -3.2400    2.8600 H   0  0  0  0  0  0  0  0  0  0  0  0
   -2.7900   -4.4300    2.6400 H   0  0  0  0  0  0  0  0  0  0  0  0
   -3.6500   -4.6700    0.2400 H   0  0  0  0  0  0  0  0  0  0  0  0
   -4.8800   -2.2600   -0.4100 H   0  0  0  0  0  0  0  0  0  0  0  0
   -5.6100   -3.8500   -0.3300 H   0  0  0  0  0  0  0  0  0  0  0  0
   -5.7300   -2.7900    1.0600 H   0  0  0  0  0  0  0  0  0  0  0  0
   -2.0300   -1.2300   -0.3200 H   0  0  0  0  0  0  0  0  0  0  0  0
   -3.4600   -1.0700    0.6700 H   0  0  0  0  0  0  0  0  0  0  0  0
   -2.1300   -1.0500    2.7000 H   0  0  0  0  0  0  0  0  0  0  0  0
    0.5100   -1.4900    2.3600 H   0  0  0  0  0  0  0  0  0  0  0  0
   -0.6300   -2.8300    2.6000 H   0  0  0  0  0  0  0  0  0  0  0  0
   -0.0600   -2.4300    0.9800 H   0  0  0  0  0  0  0  0  0  0  0  0
   -1.8200    0.9600    3.3000 H   0  0  0  0  0  0  0  0  0  0  0  0
   -0.1200    1.2700    2.9700 H   0  0  0  0  0  0  0  0  0  0  0  0
   -0.6900    3.0600    1.3400 H   0  0  0  0  0  0  0  0  0  0  0  0
   -3.6200    2.3400    1.9200 H   0  0  0  0  0  0  0  0  0  0  0  0
   -3.0600    3.5700    0.8000 H   0  0  0  0  0  0  0  0  0  0  0  0
   -2.7700    1.8500    0.4400 H   0  0  0  0  0  0  0  0  0  0  0  0
   -0.1500    4.8800    2.4600 H   0  0  0  0  0  0  0  0  0  0  0  0
   -1.6300    5.6400    3.0400 H   0  0  0  0  0  0  0  0  0  0  0  0
   -1.0900    4.5900    5.3800 H   0  0  0  0  0  0  0  0  0  0  0  0
    1.7800    4.3800    5.0100 H   0  0  0  0  0  0  0  0  0  0  0  0
    0.6200    3.1400    5.4800 H   0  0  0  0  0  0  0  0  0  0  0  0
    1.0000    3.3800    3.7900 H   0  0  0  0  0  0  0  0  0  0  0  0
   -1.0000    7.7500    4.7400 H   0  0  0  0  0  0  0  0  0  0  0  0
    0.1700    7.9400    6.0100 H   0  0  0  0  0  0  0  0  0  0  0  0
   -2.3100    6.2400    6.3100 H   0  0  0  0  0  0  0  0  0  0  0  0
   -1.8800    6.6200    8.8200 H   0  0  0  0  0  0  0  0  0  0  0  0
   -0.9000    5.4200    7.9700 H   0  0  0  0  0  0  0  0  0  0  0  0
   -0.2200    7.0100    8.3600 H   0  0  0  0  0  0  0  0  0  0  0  0
   -3.1700    9.6900    7.9700 H   0  0  0  0  0  0  0  0  0  0  0  0
   -1.8000    8.9000    8.6500 H   0  0  0  0  0  0  0  0  0  0  0  0
   -0.3400   10.0300    6.8900 H   0  0  0  0  0  0  0  0  0  0  0  0
   -1.8500   12.0100    5.7100 H   0  0  0  0  0  0  0  0  0  0  0  0
   -1.4600   10.4600    4.9400 H   0  0  0  0  0  0  0  0  0  0  0  0
   -3.0200   10.6900    5.7300 H   0  0  0  0  0  0  0  0  0  0  0  0
   -0.6600   12.4300    9.6800 H   0  0  0  0  0  0  0  0  0  0  0  0
   -1.2100   10.7900    9.8600 H   0  0  0  0  0  0  0  0  0  0  0  0
    0.9600    9.9800    8.8000 H   0  0  0  0  0  0  0  0  0  0  0  0
    2.7600   11.9500    8.6800 H   0  0  0  0  0  0  0  0  0  0  0  0
    1.7600   11.5200    7.2800 H   0  0  0  0  0  0  0  0  0  0  0  0
    1.3500   12.9200    8.2700 H   0  0  0  0  0  0  0  0  0  0  0  0
    1.4700   10.3500   12.4200 H   0  0  0  0  0  0  0  0  0  0  0  0
   -0.1100   10.5000   11.7300 H   0  0  0  0  0  0  0  0  0  0  0  0
    0.3000    8.4800   10.3000 H   0  0  0  0  0  0  0  0  0  0  0  0
    2.8000    7.7400   11.8000 H   0  0  0  0  0  0  0  0  0  0  0  0
    2.2800    7.3200   10.1800 H   0  0  0  0  0  0  0  0  0  0  0  0
    2.9900    8.9100   10.4700 H   0  0  0  0  0  0  0  0  0  0  0  0
  1  2  1  0  0  0  0
  2 45  1  0  0  0  0
  2  3  1  0  0  0  0
  3 46  1  6  0  0  0
  3  4  1  0  0  0  0
  3  5  1  0  0  0  0
  4 47  1  0  0  0  0
  4 48  1  0  0  0  0
  6  5  1  0  0  0  0
  6 50  1  0  0  0  0
  7 52  1  6  0  0  0
  7  9  1  0  0  0  0
  7  6  1  0  0  0  0
  7  8  1  0  0  0  0
  8 53  1  0  0  0  0
 10 57  1  0  0  0  0
 10  9  1  0  0  0  0
 10 56  1  0  0  0  0
 11 58  1  6  0  0  0
 11 10  1  0  0  0  0
 12 11  1  0  0  0  0
 12 61  1  0  0  0  0
 13 14  1  0  0  0  0
 13 11  1  0  0  0  0
 14 63  1  0  0  0  0
 14 15  1  0  0  0  0
 15 16  1  0  0  0  0
 15 64  1  1  0  0  0
 16 65  1  0  0  0  0
 16 66  1  0  0  0  0
 17 15  1  0  0  0  0
 17 18  1  0  0  0  0
 18 69  1  0  0  0  0
 18 68  1  0  0  0  0
 19 70  1  6  0  0  0
 19 18  1  0  0  0  0
 19 21  1  0  0  0  0
 20 71  1  0  0  0  0
 20 19  1  0  0  0  0
 21 22  1  0  0  0  0
 22 23  1  0  0  0  0
 23 24  1  0  0  0  0
 23 25  1  0  0  0  0
 23 76  1  1  0  0  0
 24 77  1  0  0  0  0
 24 78  1  0  0  0  0
 25 26  1  0  0  0  0
 26 81  1  0  0  0  0
 26 27  1  0  0  0  0
 27 82  1  6  0  0  0
 27 29  1  0  0  0  0
 27 28  1  0  0  0  0
 28 85  1  0  0  0  0
 28 83  1  0  0  0  0
 29 30  1  0  0  0  0
 30 86  1  0  0  0  0
 30 87  1  0  0  0  0
 31 88  1  6  0  0  0
 31 30  1  0  0  0  0
 31 33  1  0  0  0  0
 32 31  1  0  0  0  0
 33 34  1  0  0  0  0
 34 92  1  0  0  0  0
 34 93  1  0  0  0  0
 35 94  1  6  0  0  0
 35 34  1  0  0  0  0
 35 37  1  0  0  0  0
 36 95  1  0  0  0  0
 36 35  1  0  0  0  0
 37 38  1  0  0  0  0
 38 99  1  0  0  0  0
 38 98  1  0  0  0  0
 39100  1  6  0  0  0
 39 38  1  0  0  0  0
 39 41  1  0  0  0  0
 40 39  1  0  0  0  0
 40101  1  0  0  0  0
 42 41  1  0  0  0  0
 43  1  1  0  0  0  0
 44  2  1  0  0  0  0
 49  4  1  0  0  0  0
 51  6  1  0  0  0  0
 54  8  1  0  0  0  0
 55  8  1  0  0  0  0
 59 12  1  0  0  0  0
 60 12  1  0  0  0  0
 62 14  1  0  0  0  0
 67 16  1  0  0  0  0
 72 20  1  0  0  0  0
 73 20  1  0  0  0  0
 74 22  1  0  0  0  0
 75 22  1  0  0  0  0
 79 24  1  0  0  0  0
 80 26  1  0  0  0  0
 84 28  1  0  0  0  0
 89 32  1  0  0  0  0
 90 32  1  0  0  0  0
 91 32  1  0  0  0  0
 96 36  1  0  0  0  0
 97 36  1  0  0  0  0
102 40  1  0  0  0  0
103 40  1  0  0  0  0
M  END
