10
*****
C          0.99110       -0.08120       -0.09960
C          0.47050       -1.49030       -0.01190
O         -0.23670       -1.85790        0.92500
C          0.85510       -2.42920       -1.12380
H          0.64200        0.49330        0.76280
H          0.61980        0.39200       -1.01200
H          2.08390       -0.09200       -0.09680
H          0.47870       -2.04570       -2.07530
H          1.94260       -2.52960       -1.16030
H          0.41560       -3.41370       -0.94140
