87
*****
C          3.05280        6.03670       -0.98380
C          3.87510        4.75930       -1.18040
O          4.31500        4.13880        0.02920
C          3.30220        3.74370        0.95190
C          2.38780        2.62470        0.44570
O          1.50710        2.08170        1.43210
C          0.62960        2.99090        2.09540
C         -0.35790        3.71460        1.17600
O         -1.28520        4.56160        1.85820
C         -0.74320        5.63700        2.62780
C          0.10370        6.62960        1.82650
O          0.52540        7.78430        2.55040
C          1.35070        7.57910        3.69660
C          2.68450        6.87060        3.43800
O          3.52140        6.76060        4.59490
C          3.03120        5.97440        5.68740
C          2.89020        4.48420        5.36650
O          2.37090        3.63740        6.38890
C          1.20550        4.00640        7.12050
C         -0.06680        4.30580        6.31930
O         -1.27500        4.27750        7.08790
C         -1.40360        5.17450        8.19420
C         -1.32790        6.66120        7.82350
O         -1.70700        7.57420        8.85590
C         -1.03390        7.47670       10.10730
C          0.47210        7.75400       10.04940
O          1.11480        7.78750       11.32760
C          1.03910        6.60750       12.13010
C          1.68530        5.37270       11.49200
O          1.72210        4.22110       12.33570
C          0.47090        3.70100       12.79000
C         -0.49740        3.31830       11.66640
O         -1.67060        2.62100       12.08240
C         -2.51240        3.27390       13.03820
C         -3.08310        4.60090       12.53760
O         -3.79900        4.42310       11.32010
O          3.68850        6.95140       -0.09860
H          2.07010        5.80590       -0.56750
H          2.89270        6.53680       -1.94410
H          3.33160        4.03800       -1.79660
H          4.79010        5.02160       -1.72380
H          3.80930        3.40520        1.86250
H          2.72040        4.61660        1.24690
H          1.80330        2.94900       -0.42050
H          3.01210        1.79790        0.08810
H          0.06420        2.41250        2.83580
H          1.22190        3.69960        2.67540
H          0.15710        4.29000        0.40210
H         -0.94680        2.96300        0.63700
H         -1.59040        6.17140        3.07300
H         -0.18070        5.22730        3.47000
H          0.97530        6.14310        1.38840
H         -0.49170        6.98440        0.97670
H          1.56760        8.57070        4.10960
H          0.76580        7.06570        4.46340
H          2.53300        5.88180        3.00520
H          3.24590        7.43790        2.68560
H          3.75690        6.08720        6.50120
H          2.10190        6.40500        6.06380
H          2.32150        4.31690        4.45660
H          3.89950        4.10160        5.14420
H          0.99240        3.15930        7.78310
H          1.45270        4.84340        7.78140
H          0.00690        5.26600        5.80660
H         -0.18390        3.55090        5.53240
H         -2.37000        4.97780        8.66190
H         -0.64950        4.92550        8.94360
H         -0.33280        6.91960        7.45930
H         -2.00350        6.84340        6.97920
H         -1.49570        8.21450       10.77450
H         -1.24690        6.50590       10.55730
H          0.99050        7.04510        9.40060
H          0.62850        8.73920        9.59270
H          1.55450        6.82580       13.07440
H         -0.00330        6.42270       12.40520
H          1.20930        5.10940       10.54240
H          2.72270        5.61440       11.23700
H          0.69390        2.80640       13.38240
H          0.01790        4.41160       13.48790
H         -0.79600        4.19680       11.09180
H          0.02570        2.66760       10.95610
H         -3.34280        2.58280       13.22090
H         -1.98020        3.40140       13.98530
H         -3.76510        5.02750       13.27900
H         -2.29090        5.32930       12.35180
H         -3.39200        3.66900       10.85240
H          4.64700        6.91370       -0.26870
