input_GMX.gro created by acpype (v: 2023.10.27) on Sat Nov  2 08:18:01 2024
 OpenBabel11022408183D

 10  9  0  0  0  0  0  0  0  0999 V2000
    0.9200    0.0900   -0.0200 C   0  0  0  0  0  0  0  0  0  0  0  0
    0.4000    0.4900   -1.3800 C   0  0  0  0  0  0  0  0  0  0  0  0
   -0.3000   -0.2700   -2.0400 O   0  0  0  0  0  0  0  0  0  0  0  0
    0.7900    1.8500   -1.8800 C   0  0  0  0  0  0  0  0  0  0  0  0
    0.5700   -0.9200    0.2300 H   0  0  0  0  0  0  0  0  0  0  0  0
    0.5500    0.7900    0.7300 H   0  0  0  0  0  0  0  0  0  0  0  0
    2.0200    0.0900   -0.0300 H   0  0  0  0  0  0  0  0  0  0  0  0
    0.4100    2.6200   -1.2000 H   0  0  0  0  0  0  0  0  0  0  0  0
    1.8700    1.9200   -1.9600 H   0  0  0  0  0  0  0  0  0  0  0  0
    0.3500    2.0200   -2.8700 H   0  0  0  0  0  0  0  0  0  0  0  0
  1  5  1  0  0  0  0
  1  6  1  0  0  0  0
  2  1  1  0  0  0  0
  3  2  2  0  0  0  0
  4  2  1  0  0  0  0
  4  8  1  0  0  0  0
  7  1  1  0  0  0  0
  9  4  1  0  0  0  0
 10  4  1  0  0  0  0
M  END
