input_GMX.gro created by acpype (v: 2022.7.21) on Sun Jun  4 05:52:43 2023
 OpenBabel06062303373D

123122  0  0  1  0  0  0  0  0999 V2000
   -1.7100   -6.5500   -8.8800 O   0  0  0  0  0  0  0  0  0  0  0  0
   -0.6000   -7.2100   -9.4700 C   0  0  0  0  0  0  0  0  0  0  0  0
   -0.6600   -8.7400   -9.2700 C   0  0  1  0  0  0  0  0  0  0  0  0
    0.4500   -9.3600  -10.1300 C   0  0  0  0  0  0  0  0  0  0  0  0
   -0.4200   -9.2100   -7.9300 O   0  0  0  0  0  0  0  0  0  0  0  0
   -1.1200   -8.6500   -6.8100 C   0  0  0  0  0  0  0  0  0  0  0  0
   -2.6200   -8.9900   -6.6600 C   0  0  1  0  0  0  0  0  0  0  0  0
   -2.8000  -10.5200   -6.6500 C   0  0  0  0  0  0  0  0  0  0  0  0
   -3.2600   -8.5800   -5.4400 O   0  0  0  0  0  0  0  0  0  0  0  0
   -3.1600   -7.2400   -4.9600 C   0  0  0  0  0  0  0  0  0  0  0  0
   -4.0300   -6.1800   -5.6900 C   0  0  1  0  0  0  0  0  0  0  0  0
   -5.5300   -6.5200   -5.5800 C   0  0  0  0  0  0  0  0  0  0  0  0
   -3.9400   -4.8800   -5.0800 O   0  0  0  0  0  0  0  0  0  0  0  0
   -2.7800   -4.0700   -5.2400 C   0  0  0  0  0  0  0  0  0  0  0  0
   -2.4700   -3.5500   -6.6600 C   0  0  1  0  0  0  0  0  0  0  0  0
   -3.7200   -2.9800   -7.3600 C   0  0  0  0  0  0  0  0  0  0  0  0
   -1.5400   -2.4500   -6.5900 O   0  0  0  0  0  0  0  0  0  0  0  0
   -0.1600   -2.7600   -6.7900 C   0  0  0  0  0  0  0  0  0  0  0  0
    0.7200   -2.4400   -5.5500 C   0  0  1  0  0  0  0  0  0  0  0  0
    0.5200   -0.9900   -5.1200 C   0  0  0  0  0  0  0  0  0  0  0  0
    0.3900   -3.3400   -4.4800 O   0  0  0  0  0  0  0  0  0  0  0  0
    1.5000   -3.9100   -3.7600 C   0  0  0  0  0  0  0  0  0  0  0  0
    1.2100   -5.3900   -3.3800 C   0  0  1  0  0  0  0  0  0  0  0  0
    0.9300   -6.1700   -4.6700 C   0  0  0  0  0  0  0  0  0  0  0  0
    2.3700   -5.9400   -2.7200 O   0  0  0  0  0  0  0  0  0  0  0  0
    2.1600   -6.8800   -1.6300 C   0  0  0  0  0  0  0  0  0  0  0  0
    3.3900   -6.7700   -0.6700 C   0  0  1  0  0  0  0  0  0  0  0  0
    3.2900   -5.4100    0.0300 C   0  0  0  0  0  0  0  0  0  0  0  0
    3.4500   -7.6900    0.4200 O   0  0  0  0  0  0  0  0  0  0  0  0
    4.2300   -8.8900    0.4100 C   0  0  0  0  0  0  0  0  0  0  0  0
    5.6300   -9.0200   -0.2400 C   0  0  1  0  0  0  0  0  0  0  0  0
    6.6700   -8.0200    0.2600 C   0  0  0  0  0  0  0  0  0  0  0  0
    6.1800  -10.3000    0.1300 O   0  0  0  0  0  0  0  0  0  0  0  0
    6.0100  -11.3900   -0.7700 C   0  0  0  0  0  0  0  0  0  0  0  0
    5.0800  -12.5200   -0.2400 C   0  0  1  0  0  0  0  0  0  0  0  0
    5.3100  -12.7700    1.2600 C   0  0  0  0  0  0  0  0  0  0  0  0
    3.6700  -12.2900   -0.3800 O   0  0  0  0  0  0  0  0  0  0  0  0
    3.1600  -12.0200   -1.6900 C   0  0  0  0  0  0  0  0  0  0  0  0
    3.2200  -13.1900   -2.6900 C   0  0  1  0  0  0  0  0  0  0  0  0
    2.2200  -14.3100   -2.3500 C   0  0  0  0  0  0  0  0  0  0  0  0
    2.9300  -12.7300   -4.0300 O   0  0  0  0  0  0  0  0  0  0  0  0
    4.0800  -12.1500   -4.6400 C   0  0  0  0  0  0  0  0  0  0  0  0
    3.9700  -11.8700   -6.1500 C   0  0  1  0  0  0  0  0  0  0  0  0
    2.8600  -10.8700   -6.4900 C   0  0  0  0  0  0  0  0  0  0  0  0
    5.2000  -11.3100   -6.6300 O   0  0  0  0  0  0  0  0  0  0  0  0
    6.2800  -12.2400   -6.6800 C   0  0  0  0  0  0  0  0  0  0  0  0
    7.5600  -11.5600   -7.1700 C   0  0  1  0  0  0  0  0  0  0  0  0
    7.9900  -10.4000   -6.2900 C   0  0  0  0  0  0  0  0  0  0  0  0
    8.6100  -12.5400   -7.2000 O   0  0  0  0  0  0  0  0  0  0  0  0
    9.4400  -12.0800   -7.4000 H   0  0  0  0  0  0  0  0  0  0  0  0
   -2.4600   -6.6400   -9.5000 H   0  0  0  0  0  0  0  0  0  0  0  0
   -0.6100   -6.9700  -10.5400 H   0  0  0  0  0  0  0  0  0  0  0  0
    0.3200   -6.8000   -9.0500 H   0  0  0  0  0  0  0  0  0  0  0  0
   -1.6300   -9.1200   -9.5900 H   0  0  0  0  0  0  0  0  0  0  0  0
    1.4400   -9.0800   -9.7500 H   0  0  0  0  0  0  0  0  0  0  0  0
    0.4100  -10.4600  -10.1100 H   0  0  0  0  0  0  0  0  0  0  0  0
    0.3800   -9.0400  -11.1800 H   0  0  0  0  0  0  0  0  0  0  0  0
   -0.6000   -9.0500   -5.9300 H   0  0  0  0  0  0  0  0  0  0  0  0
   -0.9500   -7.5700   -6.7700 H   0  0  0  0  0  0  0  0  0  0  0  0
   -3.1900   -8.6000   -7.5100 H   0  0  0  0  0  0  0  0  0  0  0  0
   -2.3100  -10.9600   -5.7700 H   0  0  0  0  0  0  0  0  0  0  0  0
   -3.8600  -10.7900   -6.5500 H   0  0  0  0  0  0  0  0  0  0  0  0
   -2.4000  -11.0100   -7.5400 H   0  0  0  0  0  0  0  0  0  0  0  0
   -3.5300   -7.2900   -3.9300 H   0  0  0  0  0  0  0  0  0  0  0  0
   -2.1200   -6.9300   -4.8800 H   0  0  0  0  0  0  0  0  0  0  0  0
   -3.7600   -6.1100   -6.7400 H   0  0  0  0  0  0  0  0  0  0  0  0
   -6.1200   -5.6700   -5.2000 H   0  0  0  0  0  0  0  0  0  0  0  0
   -5.9400   -6.7700   -6.5700 H   0  0  0  0  0  0  0  0  0  0  0  0
   -5.7200   -7.3700   -4.9200 H   0  0  0  0  0  0  0  0  0  0  0  0
   -2.9500   -3.1900   -4.6100 H   0  0  0  0  0  0  0  0  0  0  0  0
   -1.9100   -4.5800   -4.8100 H   0  0  0  0  0  0  0  0  0  0  0  0
   -2.0800   -4.3600   -7.2800 H   0  0  0  0  0  0  0  0  0  0  0  0
   -3.7900   -1.9000   -7.2500 H   0  0  0  0  0  0  0  0  0  0  0  0
   -3.6500   -3.1800   -8.4300 H   0  0  0  0  0  0  0  0  0  0  0  0
   -4.6500   -3.4300   -7.0000 H   0  0  0  0  0  0  0  0  0  0  0  0
   -0.0200   -3.8000   -7.1000 H   0  0  0  0  0  0  0  0  0  0  0  0
    0.1700   -2.1200   -7.6200 H   0  0  0  0  0  0  0  0  0  0  0  0
    1.7700   -2.5800   -5.8500 H   0  0  0  0  0  0  0  0  0  0  0  0
   -0.5100   -0.8000   -4.7900 H   0  0  0  0  0  0  0  0  0  0  0  0
    1.1800   -0.7300   -4.2800 H   0  0  0  0  0  0  0  0  0  0  0  0
    0.7500   -0.2900   -5.9500 H   0  0  0  0  0  0  0  0  0  0  0  0
    2.4300   -3.8700   -4.3400 H   0  0  0  0  0  0  0  0  0  0  0  0
    1.6600   -3.3200   -2.8500 H   0  0  0  0  0  0  0  0  0  0  0  0
    0.3200   -5.4300   -2.7300 H   0  0  0  0  0  0  0  0  0  0  0  0
    1.8300   -6.2100   -5.2900 H   0  0  0  0  0  0  0  0  0  0  0  0
    0.6300   -7.2000   -4.4700 H   0  0  0  0  0  0  0  0  0  0  0  0
    0.1400   -5.7000   -5.2600 H   0  0  0  0  0  0  0  0  0  0  0  0
    1.2300   -6.6400   -1.0900 H   0  0  0  0  0  0  0  0  0  0  0  0
    2.0600   -7.8900   -2.0300 H   0  0  0  0  0  0  0  0  0  0  0  0
    4.3300   -6.8000   -1.2500 H   0  0  0  0  0  0  0  0  0  0  0  0
    3.9800   -5.3200    0.8600 H   0  0  0  0  0  0  0  0  0  0  0  0
    3.4700   -4.6000   -0.6800 H   0  0  0  0  0  0  0  0  0  0  0  0
    2.2800   -5.2700    0.4500 H   0  0  0  0  0  0  0  0  0  0  0  0
    4.3700   -9.1300    1.4700 H   0  0  0  0  0  0  0  0  0  0  0  0
    3.5900   -9.6900    0.0300 H   0  0  0  0  0  0  0  0  0  0  0  0
    5.5700   -8.9300   -1.3300 H   0  0  0  0  0  0  0  0  0  0  0  0
    7.6200   -8.1900   -0.2600 H   0  0  0  0  0  0  0  0  0  0  0  0
    6.3700   -6.9900    0.0900 H   0  0  0  0  0  0  0  0  0  0  0  0
    6.8900   -8.1600    1.3300 H   0  0  0  0  0  0  0  0  0  0  0  0
    7.0100  -11.8400   -0.8700 H   0  0  0  0  0  0  0  0  0  0  0  0
    5.7400  -11.0500   -1.7700 H   0  0  0  0  0  0  0  0  0  0  0  0
    5.3300  -13.4400   -0.7700 H   0  0  0  0  0  0  0  0  0  0  0  0
    4.6800  -12.1200    1.8800 H   0  0  0  0  0  0  0  0  0  0  0  0
    5.0500  -13.8000    1.5100 H   0  0  0  0  0  0  0  0  0  0  0  0
    6.3600  -12.6200    1.5500 H   0  0  0  0  0  0  0  0  0  0  0  0
    2.1200  -11.7300   -1.5600 H   0  0  0  0  0  0  0  0  0  0  0  0
    3.6500  -11.1300   -2.0800 H   0  0  0  0  0  0  0  0  0  0  0  0
    4.2100  -13.6500   -2.6900 H   0  0  0  0  0  0  0  0  0  0  0  0
    1.6500  -14.6300   -3.2300 H   0  0  0  0  0  0  0  0  0  0  0  0
    2.7600  -15.1800   -1.9700 H   0  0  0  0  0  0  0  0  0  0  0  0
    1.5200  -14.0100   -1.5700 H   0  0  0  0  0  0  0  0  0  0  0  0
    4.3400  -11.2100   -4.1300 H   0  0  0  0  0  0  0  0  0  0  0  0
    4.9200  -12.8400   -4.4700 H   0  0  0  0  0  0  0  0  0  0  0  0
    3.7600  -12.8000   -6.7000 H   0  0  0  0  0  0  0  0  0  0  0  0
    3.1200  -10.2600   -7.3600 H   0  0  0  0  0  0  0  0  0  0  0  0
    1.9200  -11.3900   -6.7100 H   0  0  0  0  0  0  0  0  0  0  0  0
    2.6700  -10.1800   -5.6600 H   0  0  0  0  0  0  0  0  0  0  0  0
    6.4800  -12.6800   -5.7000 H   0  0  0  0  0  0  0  0  0  0  0  0
    6.0200  -13.0700   -7.3500 H   0  0  0  0  0  0  0  0  0  0  0  0
    7.4000  -11.2000   -8.1900 H   0  0  0  0  0  0  0  0  0  0  0  0
    8.6200  -10.7300   -5.4600 H   0  0  0  0  0  0  0  0  0  0  0  0
    8.5900   -9.6900   -6.8800 H   0  0  0  0  0  0  0  0  0  0  0  0
    7.1400   -9.8400   -5.8900 H   0  0  0  0  0  0  0  0  0  0  0  0
  2  3  1  0  0  0  0
  2 53  1  0  0  0  0
  2  1  1  0  0  0  0
  3 54  1  6  0  0  0
  3  5  1  0  0  0  0
  4 56  1  0  0  0  0
  4 55  1  0  0  0  0
  4  3  1  0  0  0  0
  5  6  1  0  0  0  0
  6 59  1  0  0  0  0
  6  7  1  0  0  0  0
  6 58  1  0  0  0  0
  7 60  1  6  0  0  0
  7  8  1  0  0  0  0
  7  9  1  0  0  0  0
  8 62  1  0  0  0  0
  8 61  1  0  0  0  0
  9 10  1  0  0  0  0
 10 65  1  0  0  0  0
 10 64  1  0  0  0  0
 11 66  1  6  0  0  0
 11 12  1  0  0  0  0
 11 13  1  0  0  0  0
 11 10  1  0  0  0  0
 12 67  1  0  0  0  0
 12 69  1  0  0  0  0
 14 13  1  0  0  0  0
 14 71  1  0  0  0  0
 14 70  1  0  0  0  0
 15 72  1  6  0  0  0
 15 17  1  0  0  0  0
 15 14  1  0  0  0  0
 16 73  1  0  0  0  0
 16 75  1  0  0  0  0
 16 15  1  0  0  0  0
 18 17  1  0  0  0  0
 18 19  1  0  0  0  0
 19 78  1  6  0  0  0
 19 20  1  0  0  0  0
 19 21  1  0  0  0  0
 20 79  1  0  0  0  0
 20 80  1  0  0  0  0
 21 22  1  0  0  0  0
 22 23  1  0  0  0  0
 22 83  1  0  0  0  0
 23 84  1  1  0  0  0
 23 25  1  0  0  0  0
 24 86  1  0  0  0  0
 24 23  1  0  0  0  0
 25 26  1  0  0  0  0
 26 88  1  0  0  0  0
 26 27  1  0  0  0  0
 27 90  1  6  0  0  0
 27 28  1  0  0  0  0
 27 29  1  0  0  0  0
 28 93  1  0  0  0  0
 28 91  1  0  0  0  0
 30 29  1  0  0  0  0
 30 94  1  0  0  0  0
 31 96  1  6  0  0  0
 31 33  1  0  0  0  0
 31 32  1  0  0  0  0
 31 30  1  0  0  0  0
 32 99  1  0  0  0  0
 34 35  1  0  0  0  0
 34 33  1  0  0  0  0
 35102  1  6  0  0  0
 35 36  1  0  0  0  0
 36104  1  0  0  0  0
 36105  1  0  0  0  0
 36103  1  0  0  0  0
 37 35  1  0  0  0  0
 38106  1  0  0  0  0
 38 37  1  0  0  0  0
 39108  1  1  0  0  0
 39 40  1  0  0  0  0
 39 38  1  0  0  0  0
 40110  1  0  0  0  0
 40111  1  0  0  0  0
 41 39  1  0  0  0  0
 42113  1  0  0  0  0
 42112  1  0  0  0  0
 42 41  1  0  0  0  0
 43114  1  6  0  0  0
 43 42  1  0  0  0  0
 44 43  1  0  0  0  0
 44117  1  0  0  0  0
 45 43  1  0  0  0  0
 46 45  1  0  0  0  0
 46118  1  0  0  0  0
 47120  1  6  0  0  0
 47 46  1  0  0  0  0
 47 48  1  0  0  0  0
 48123  1  0  0  0  0
 48121  1  0  0  0  0
 49 47  1  0  0  0  0
 50 49  1  0  0  0  0
 51  1  1  0  0  0  0
 52  2  1  0  0  0  0
 57  4  1  0  0  0  0
 63  8  1  0  0  0  0
 68 12  1  0  0  0  0
 74 16  1  0  0  0  0
 76 18  1  0  0  0  0
 77 18  1  0  0  0  0
 81 20  1  0  0  0  0
 82 22  1  0  0  0  0
 85 24  1  0  0  0  0
 87 24  1  0  0  0  0
 89 26  1  0  0  0  0
 92 28  1  0  0  0  0
 95 30  1  0  0  0  0
 97 32  1  0  0  0  0
 98 32  1  0  0  0  0
100 34  1  0  0  0  0
101 34  1  0  0  0  0
107 38  1  0  0  0  0
109 40  1  0  0  0  0
115 44  1  0  0  0  0
116 44  1  0  0  0  0
119 46  1  0  0  0  0
122 48  1  0  0  0  0
M  END
