20
*****
C          1.14220       -0.72950        2.36100
C          0.51300        0.31250        1.44820
C          0.97390        1.72720        1.80350
C          0.41040        2.80790        0.87370
C         -1.11570        2.90810        0.90550
C         -1.62340        4.02720        0.00900
H          2.23350       -0.72460        2.27110
H          0.78290       -1.72890        2.09680
H          0.88140       -0.54120        3.40790
H          0.77360        0.08650        0.40770
H         -0.57460        0.23130        1.53760
H          0.69580        1.95710        2.83980
H          2.06910        1.77030        1.75480
H          0.83900        3.77260        1.17070
H          0.74710        2.61680       -0.15290
H         -1.56720        1.96960        0.56790
H         -1.45610        3.08450        1.93230
H         -1.31460        3.86790       -1.02900
H         -2.71700        4.06410        0.03490
H         -1.24230        4.99930        0.33730
