input_GMX.gro created by acpype (v: 2022.7.21) on Sun Oct 15 14:25:18 2023
 OpenBabel10152323253D

 20 19  0  0  0  0  0  0  0  0999 V2000
    1.1400   -0.7300    2.3600 C   0  0  0  0  0  0  0  0  0  0  0  0
    0.5100    0.3100    1.4500 C   0  0  0  0  0  0  0  0  0  0  0  0
    0.9700    1.7300    1.8000 C   0  0  0  0  0  0  0  0  0  0  0  0
    0.4100    2.8100    0.8700 C   0  0  0  0  0  0  0  0  0  0  0  0
   -1.1200    2.9100    0.9100 C   0  0  0  0  0  0  0  0  0  0  0  0
   -1.6200    4.0300    0.0100 C   0  0  0  0  0  0  0  0  0  0  0  0
    2.2300   -0.7200    2.2700 H   0  0  0  0  0  0  0  0  0  0  0  0
    0.7800   -1.7300    2.1000 H   0  0  0  0  0  0  0  0  0  0  0  0
    0.8800   -0.5400    3.4100 H   0  0  0  0  0  0  0  0  0  0  0  0
    0.7700    0.0900    0.4100 H   0  0  0  0  0  0  0  0  0  0  0  0
   -0.5700    0.2300    1.5400 H   0  0  0  0  0  0  0  0  0  0  0  0
    0.7000    1.9600    2.8400 H   0  0  0  0  0  0  0  0  0  0  0  0
    2.0700    1.7700    1.7500 H   0  0  0  0  0  0  0  0  0  0  0  0
    0.8400    3.7700    1.1700 H   0  0  0  0  0  0  0  0  0  0  0  0
    0.7500    2.6200   -0.1500 H   0  0  0  0  0  0  0  0  0  0  0  0
   -1.5700    1.9700    0.5700 H   0  0  0  0  0  0  0  0  0  0  0  0
   -1.4600    3.0800    1.9300 H   0  0  0  0  0  0  0  0  0  0  0  0
   -1.3200    3.8700   -1.0300 H   0  0  0  0  0  0  0  0  0  0  0  0
   -2.7200    4.0600    0.0400 H   0  0  0  0  0  0  0  0  0  0  0  0
   -1.2400    5.0000    0.3400 H   0  0  0  0  0  0  0  0  0  0  0  0
  1  9  1  0  0  0  0
  2 11  1  0  0  0  0
  2  3  1  0  0  0  0
  2  1  1  0  0  0  0
  3 12  1  0  0  0  0
  4  5  1  0  0  0  0
  4 14  1  0  0  0  0
  4  3  1  0  0  0  0
  5 17  1  0  0  0  0
  6 19  1  0  0  0  0
  6 20  1  0  0  0  0
  6  5  1  0  0  0  0
  7  1  1  0  0  0  0
  8  1  1  0  0  0  0
 10  2  1  0  0  0  0
 13  3  1  0  0  0  0
 15  4  1  0  0  0  0
 16  5  1  0  0  0  0
 18  6  1  0  0  0  0
M  END
