input_GMX.gro created by acpype (v: 2022.7.21) on Fri Sep 15 04:07:35 2023
 OpenBabel09152313103D

 47 46  0  0  1  0  0  0  0  0999 V2000
    0.1400   -1.0100    0.3400 H   0  0  0  0  0  0  0  0  0  0  0  0
    1.1900   -0.7100    0.2800 C   0  0  0  0  0  0  0  0  0  0  0  0
    2.1300   -1.9200    0.3500 C   0  0  0  0  0  0  0  0  0  0  0  0
    1.7800   -2.8200   -0.8700 C   0  0  0  0  0  0  0  0  0  0  0  0
    3.6600   -1.5400    0.2500 C   0  0  0  0  0  0  0  0  0  0  0  0
    4.3500   -0.6200    1.3200 C   0  0  1  0  0  0  0  0  0  0  0  0
    4.1000   -1.1900    2.7400 C   0  0  0  0  0  0  0  0  0  0  0  0
    5.9100   -0.5900    1.1600 C   0  0  0  0  0  0  0  0  0  0  0  0
    6.5800   -0.2000   -0.1700 C   0  0  1  0  0  0  0  0  0  0  0  0
    6.2800    1.2200   -0.6000 C   0  0  0  0  0  0  0  0  0  0  0  0
    5.8100    1.2300   -1.8800 O   0  0  0  0  0  0  0  0  0  0  0  0
    5.3900    2.5000   -2.3900 C   0  0  0  0  0  0  0  0  0  0  0  0
    6.4600    2.2000    0.1100 O   0  0  0  0  0  0  0  0  0  0  0  0
    8.1100   -0.3000   -0.0200 C   0  0  0  0  0  0  0  0  0  0  0  0
    6.2700   -0.9000   -0.9600 H   0  0  0  0  0  0  0  0  0  0  0  0
    3.8300    0.8200    1.2300 C   0  0  0  0  0  0  0  0  0  0  0  0
    3.9300    1.4500    2.4400 O   0  0  0  0  0  0  0  0  0  0  0  0
    3.4900    2.8100    2.4600 C   0  0  0  0  0  0  0  0  0  0  0  0
    3.4300    1.3500    0.2000 O   0  0  0  0  0  0  0  0  0  0  0  0
    1.8500   -2.8100    1.5800 C   0  0  0  0  0  0  0  0  0  0  0  0
    0.8100   -2.3500    2.3200 O   0  0  0  0  0  0  0  0  0  0  0  0
    0.4600   -3.1200    3.4700 C   0  0  0  0  0  0  0  0  0  0  0  0
    2.4800   -3.8300    1.8400 O   0  0  0  0  0  0  0  0  0  0  0  0
    1.3100   -0.1600   -0.6600 H   0  0  0  0  0  0  0  0  0  0  0  0
    1.3500   -0.0200    1.1100 H   0  0  0  0  0  0  0  0  0  0  0  0
    1.9600   -2.2900   -1.8100 H   0  0  0  0  0  0  0  0  0  0  0  0
    2.3800   -3.7300   -0.8800 H   0  0  0  0  0  0  0  0  0  0  0  0
    0.7300   -3.1200   -0.8500 H   0  0  0  0  0  0  0  0  0  0  0  0
    4.2300   -2.4800    0.2200 H   0  0  0  0  0  0  0  0  0  0  0  0
    3.8100   -1.0800   -0.7400 H   0  0  0  0  0  0  0  0  0  0  0  0
    4.3700   -2.2500    2.7900 H   0  0  0  0  0  0  0  0  0  0  0  0
    4.7200   -0.6800    3.4800 H   0  0  0  0  0  0  0  0  0  0  0  0
    3.0700   -1.0500    3.0600 H   0  0  0  0  0  0  0  0  0  0  0  0
    6.3100    0.0800    1.9400 H   0  0  0  0  0  0  0  0  0  0  0  0
    6.2800   -1.6000    1.4100 H   0  0  0  0  0  0  0  0  0  0  0  0
    4.3900    2.3800   -2.8100 H   0  0  0  0  0  0  0  0  0  0  0  0
    5.3500    3.2900   -1.6300 H   0  0  0  0  0  0  0  0  0  0  0  0
    6.0700    2.8000   -3.1900 H   0  0  0  0  0  0  0  0  0  0  0  0
    8.4200   -1.3200    0.2400 H   0  0  0  0  0  0  0  0  0  0  0  0
    8.6300   -0.0000   -0.9300 H   0  0  0  0  0  0  0  0  0  0  0  0
    8.4700    0.3700    0.7800 H   0  0  0  0  0  0  0  0  0  0  0  0
    4.2300    3.4400    1.9600 H   0  0  0  0  0  0  0  0  0  0  0  0
    2.5100    2.9200    2.0000 H   0  0  0  0  0  0  0  0  0  0  0  0
    3.4100    3.1100    3.5000 H   0  0  0  0  0  0  0  0  0  0  0  0
    0.5100   -4.1900    3.2800 H   0  0  0  0  0  0  0  0  0  0  0  0
    1.1200   -2.8500    4.3100 H   0  0  0  0  0  0  0  0  0  0  0  0
   -0.5700   -2.8700    3.7500 H   0  0  0  0  0  0  0  0  0  0  0  0
  2  1  1  0  0  0  0
  2  3  1  0  0  0  0
  2 25  1  0  0  0  0
  3 20  1  0  0  0  0
  4 28  1  0  0  0  0
  4  3  1  0  0  0  0
  5  3  1  0  0  0  0
  5  6  1  0  0  0  0
  6 16  1  6  0  0  0
  6  7  1  0  0  0  0
  7 31  1  0  0  0  0
  7 33  1  0  0  0  0
  7 32  1  0  0  0  0
  8  6  1  0  0  0  0
  8 35  1  0  0  0  0
  8 34  1  0  0  0  0
  9 15  1  6  0  0  0
  9 14  1  0  0  0  0
  9  8  1  0  0  0  0
 10  9  1  0  0  0  0
 10 13  2  0  0  0  0
 11 10  1  0  0  0  0
 12 11  1  0  0  0  0
 12 37  1  0  0  0  0
 14 39  1  0  0  0  0
 14 41  1  0  0  0  0
 16 17  1  0  0  0  0
 17 18  1  0  0  0  0
 18 44  1  0  0  0  0
 19 16  2  0  0  0  0
 20 23  2  0  0  0  0
 20 21  1  0  0  0  0
 21 22  1  0  0  0  0
 22 47  1  0  0  0  0
 22 46  1  0  0  0  0
 24  2  1  0  0  0  0
 26  4  1  0  0  0  0
 27  4  1  0  0  0  0
 29  5  1  0  0  0  0
 30  5  1  0  0  0  0
 36 12  1  0  0  0  0
 38 12  1  0  0  0  0
 40 14  1  0  0  0  0
 42 18  1  0  0  0  0
 43 18  1  0  0  0  0
 45 22  1  0  0  0  0
M  END
