302
*****
H         -0.74490       -3.59330       -2.17330
C          0.26430       -3.17440       -2.09170
C          1.32820       -4.27630       -2.06800
C          1.30840       -4.95850       -3.45940
C          2.75840       -3.71280       -1.86740
C          3.21640       -2.91400       -0.62000
C          2.82620       -3.61950        0.69810
C          4.77780       -2.91920       -0.62340
C          5.64360       -2.35150       -1.77280
C          5.22530       -0.91650       -2.17000
C          7.05240       -2.16220       -1.17020
C          7.93030       -3.28020       -0.58030
C          8.07130       -4.50010       -1.51730
C          9.33510       -2.64330       -0.58140
C          9.70490       -1.33030        0.13840
C          9.30030       -1.34260        1.62890
C         11.23950       -1.39540        0.15250
C         12.11400       -1.50130       -1.11200
C         11.79400       -0.40440       -2.15200
C         13.49410       -1.12580       -0.55690
C         14.19120       -1.88170        0.58730
C         14.29110       -3.40140        0.32790
C         15.62780       -1.36660        0.44690
C         16.02160        0.11950        0.52800
C         15.48760        0.81570        1.79920
C         17.53030       -0.00010        0.74640
C         18.47530       -0.72890       -0.23170
C         18.33410       -0.22560       -1.68470
C         19.82950       -0.20220        0.23900
C         20.37430       -0.40390        1.66470
C         20.32640       -1.87720        2.12590
C         21.85610       -0.11060        1.44380
C         22.38180        1.21120        0.84370
C         21.84520        2.45220        1.59960
C         23.85990        1.12880        1.24070
C         24.79250       -0.02170        0.81890
C         24.78230       -0.25580       -0.70960
C         26.16590        0.58270        1.12410
C         26.58750        1.07200        2.52540
C         26.37850       -0.00240        3.61490
C         28.10870        1.17650        2.36170
C         28.80070        2.04690        1.29560
C         28.31000        3.51280        1.32980
C         30.24310        2.09960        1.82040
C         31.12600        0.86050        2.07690
C         31.20490       -0.05820        0.83620
C         32.53560        1.47450        2.20270
C         32.91930        2.55620        3.24060
C         32.54530        2.11610        4.67460
C         34.46850        2.56010        3.21640
C         35.32380        2.82740        1.95210
C         34.92570        4.18780        1.32570
C         36.79080        3.03560        2.44970
C         37.60100        2.00180        3.29710
C         37.70580        0.67200        2.52080
C         39.08830        2.52260        3.39550
C         39.47500        3.88750        4.05130
C         38.94690        3.95010        5.49820
C         41.02360        3.96470        4.21590
C         41.97050        3.81130        3.01400
C         41.80600        4.91790        1.99290
O         41.53000        4.39200        0.77160
C         41.20910        5.32890       -0.26310
O         41.90370        6.10930        2.26100
C         43.40490        3.89300        3.55100
H         41.83030        2.83440        2.53510
C         39.01090        5.12400        3.24050
O         38.84470        6.20820        4.04260
C         38.45500        7.43630        3.40960
O         38.86260        5.13200        2.02770
C         37.01310        1.75280        4.72340
O         37.35760        0.54470        5.24710
C         36.87410        0.29560        6.58180
O         36.35190        2.57140        5.34630
C         35.29330        1.71360        0.86450
O         35.59350        2.18450       -0.37230
C         35.63920        1.22270       -1.43690
O         35.06030        0.52460        1.08990
C         32.42210        4.01750        2.98760
O         32.80470        4.86060        3.98670
C         32.60230        6.26180        3.73930
O         31.84990        4.41270        1.97620
C         30.85200       -0.00270        3.35380
O         31.74150       -1.03210        3.46310
C         31.73280       -1.76180        4.69930
O         30.02440        0.24230        4.22290
C         28.85110        1.52490       -0.18080
O         29.53770        2.37940       -0.99510
C         29.88130        1.88510       -2.30120
O         28.44320        0.43960       -0.56600
C         26.05850        2.46950        3.02820
O         26.60010        2.76570        4.26820
C         26.41400        4.10740        4.74080
O         25.38010        3.24570        2.40850
C         24.70710       -1.41080        1.57090
O         25.65680       -2.26720        1.10610
C         25.85410       -3.48580        1.84060
O         23.98560       -1.66130        2.49420
C         22.31680        1.44970       -0.70350
O         22.89710        2.63420       -1.05310
C         23.12360        2.87060       -2.44350
O         21.90210        0.64890       -1.55230
C         19.86770        0.52180        2.82160
O         20.55660        0.28160        3.97850
C         20.37070        1.19510        5.07040
O         19.04010        1.41610        2.71850
C         18.54660       -2.30050       -0.23480
O         19.53090       -2.74750       -1.07250
C         19.86310       -4.14440       -1.00640
O         17.89700       -3.05160        0.47550
C         15.78610        1.04520       -0.71730
O         16.28990        2.29740       -0.50100
C         16.34510        3.18310       -1.63290
O         15.31330        0.70150       -1.78570
C         13.74980       -1.63150        2.06380
O         14.53240       -2.30760        2.95000
C         14.39180       -1.98190        4.34480
O         12.87490       -0.84140        2.43020
C         12.24770       -2.88620       -1.83080
O         13.13290       -2.82120       -2.87200
C         13.53890       -4.06360       -3.46710
O         11.72890       -3.93310       -1.47180
C          9.29300        0.03010       -0.51580
O          9.76350        1.09010        0.21270
C          9.66780        2.39020       -0.38820
O          8.72440        0.16660       -1.58650
C          7.59950       -3.75110        0.86740
O          8.51940       -4.67730        1.30150
C          8.47110       -5.03570        2.68700
O          6.71480       -3.30800        1.57960
C          5.77700       -3.23770       -3.04540
O          6.58650       -2.64610       -3.97130
C          6.98300       -3.44880       -5.09570
O          5.31960       -4.36170       -3.17860
C          2.72040       -1.44740       -0.57390
O          3.18180       -0.80970        0.54510
C          2.94410        0.60050        0.62070
O          2.07420       -0.89480       -1.45120
C          0.98210       -5.36450       -1.03730
O          1.96170       -6.31380       -0.98430
C          1.78310       -7.35310       -0.01880
O         -0.03400       -5.38470       -0.35540
H          0.40950       -2.51050       -2.95310
H          0.27660       -2.57050       -1.18170
H          1.60400       -4.25480       -4.24710
H          2.00360       -5.80520       -3.50580
H          0.31140       -5.33890       -3.70460
H          3.41020       -4.59420       -1.90600
H          3.00130       -3.11050       -2.75250
H          3.19210       -4.65290        0.71000
H          3.28540       -3.12950        1.56700
H          1.74860       -3.61800        0.87070
H          5.06050       -2.35850        0.27620
H          5.10390       -3.95540       -0.45210
H          5.20210       -0.26500       -1.28650
H          5.94800       -0.45830       -2.85610
H          4.25780       -0.87690       -2.67060
H          7.63080       -1.73480       -1.99490
H          6.97310       -1.38330       -0.39840
H          8.37630       -4.18210       -2.52010
H          8.85760       -5.18350       -1.17440
H          7.15520       -5.08700       -1.59110
H          9.98390       -3.42140       -0.16450
H          9.62370       -2.51170       -1.63420
H          9.65470       -2.25970        2.11490
H          9.76640       -0.51640        2.17940
H          8.22390       -1.25420        1.77920
H         11.54100       -0.48040        0.67160
H         11.51320       -2.24200        0.79630
H         11.76550        0.58210       -1.67360
H         12.57190       -0.33720       -2.92210
H         10.85130       -0.57450       -2.67370
H         14.15400       -1.17510       -1.42880
H         13.43450       -0.07080       -0.25350
H         14.67270       -3.59520       -0.68250
H         15.00040       -3.88510        1.00900
H         13.33700       -3.91650        0.45200
H         16.17360       -1.88690        1.23820
H         16.00130       -1.74200       -0.51650
H         15.71250        0.21580        2.68930
H         15.97470        1.78380        1.96460
H         14.41430        1.00810        1.76150
H         17.87460        1.03540        0.82670
H         17.67090       -0.46640        1.73190
H         18.35500        0.86980       -1.71680
H         19.17210       -0.55730       -2.30940
H         17.42410       -0.58080       -2.17060
H         20.54190       -0.66830       -0.44440
H         19.84040        0.87850        0.03860
H         20.74700       -2.53320        1.35540
H         20.94050       -2.04300        3.01890
H         19.31800       -2.21410        2.37050
H         22.30240       -0.21990        2.43590
H         22.24900       -0.91680        0.81170
H         21.96660        2.33330        2.68380
H         22.40660        3.35950        1.34070
H         20.79530        2.66340        1.38770
H         24.29280        2.05570        0.85720
H         23.89780        1.17810        2.33880
H         24.90570        0.69470       -1.24180
H         25.61740       -0.88790       -1.03010
H         23.87070       -0.74390       -1.05920
H         26.86800       -0.20300        0.83480
H         26.29960        1.42270        0.43280
H         26.79460       -0.96360        3.28890
H         26.90710        0.25050        4.54060
H         25.32940       -0.14200        3.88280
H         28.45610        1.52790        3.33640
H         28.47850        0.15200        2.22300
H         28.33280        3.89910        2.35690
H         28.96260        4.17440        0.74910
H         27.30260        3.63770        0.92950
H         30.76810        2.71140        1.08270
H         30.20820        2.66190        2.76390
H         31.43910        0.53080       -0.05910
H         32.01100       -0.79400        0.92800
H         30.28730       -0.62050        0.66080
H         33.19360        0.61800        2.37710
H         32.78150        1.88360        1.21460
H         32.91540        1.10200        4.87050
H         33.01150        2.75770        5.43020
H         31.47040        2.14220        4.86410
H         34.75530        3.31520        3.95360
H         34.77430        1.57840        3.59950
H         34.90820        4.97230        2.09150
H         35.64910        4.51390        0.57070
H         33.95530        4.15380        0.82750
H         37.38070        3.24190        1.54810
H         36.76540        3.95960        3.04020
H         37.98820        0.85750        1.47680
H         38.47560        0.01800        2.94450
H         36.77940        0.09840        2.54680
H         39.65500        1.74310        3.92410
H         39.48350        2.53060        2.36930
H         39.12430        2.99830        6.01410
H         39.46000        4.72150        6.08380
H         37.88940        4.20630        5.54000
H         41.26180        4.91800        4.70510
H         41.30570        3.17730        4.93160
H         40.24370        5.04280       -0.69050
H         41.14160        6.36320        0.08440
H         41.97000        5.26030       -1.04580
H         43.61270        3.06620        4.23780
H         44.14330        3.87020        2.74360
H         43.55410        4.82730        4.10560
H         39.34610        7.99190        3.10370
H         37.78640        7.28120        2.55800
H         37.91920        8.03340        4.15490
H         37.54960        0.75490        7.31110
H         35.85020        0.65720        6.74070
H         36.87190       -0.78550        6.74920
H         36.61560        0.72670       -1.44640
H         34.83590        0.48050       -1.37220
H         35.52110        1.76290       -2.38090
H         33.30990        6.62260        2.98410
H         31.57460        6.48500        3.43400
H         32.80690        6.79440        4.67220
H         32.27770       -1.20250        5.46780
H         30.71950       -1.99250        5.04770
H         32.25950       -2.70490        4.53320
H         30.81340        1.31250       -2.24410
H         29.09330        1.27170       -2.75040
H         30.05730        2.74600       -2.95250
H         27.16380        4.76900        4.29300
H         25.40720        4.49560        4.55010
H         26.57930        4.10350        5.82270
H         26.50120       -3.30090        2.70680
H         24.91030       -3.94110        2.17010
H         26.36710       -4.20200        1.19190
H         24.03540        2.35640       -2.76950
H         22.27570        2.56630       -3.06720
H         23.27980        3.94520       -2.58000
H         21.02970        2.06150        4.94780
H         19.33190        1.52130        5.18370
H         20.67030        0.67830        5.98730
H         20.59550       -4.31430       -0.21010
H         18.99060       -4.78870       -0.85700
H         20.33360       -4.41970       -1.95570
H         17.24800        2.98060       -2.21940
H         15.45790        3.11590       -2.26960
H         16.41700        4.20590       -1.25180
H         14.97550       -1.08460        4.57680
H         13.34780       -1.84050        4.64040
H         14.80550       -2.80940        4.92490
H         14.33730       -4.52000       -2.87160
H         12.71050       -4.76800       -3.59160
H         13.95020       -3.83960       -4.45620
H         10.46760        2.52940       -1.12270
H          8.69120        2.56970       -0.85110
H          9.81250        3.13130        0.40450
H          8.95220       -4.26100        3.29470
H          7.45080       -5.21700        3.03860
H          9.04570       -5.95820        2.80770
H          7.70210       -4.21510       -4.78510
H          6.12390       -3.90600       -5.59110
H          7.48710       -2.79060       -5.80950
H          3.47120        1.12910       -0.18050
H          1.87390        0.82350        0.59450
H          3.34710        0.95340        1.57580
H          1.42790       -6.96420        0.94060
H          1.09730       -8.10850       -0.41150
H          2.75760       -7.82330        0.14790
