input_GMX.gro created by acpype (v: 2022.7.21) on Fri Sep 15 04:06:25 2023
 OpenBabel09152313063D

 17 16  0  0  0  0  0  0  0  0999 V2000
    1.0500    0.2800   -0.2500 H   0  0  0  0  0  0  0  0  0  0  0  0
    2.1400    0.2100   -0.2400 C   0  0  0  0  0  0  0  0  0  0  0  0
    2.6200   -1.0600   -0.9500 C   0  0  0  0  0  0  0  0  0  0  0  0
    2.2700   -1.0100   -1.9900 H   0  0  0  0  0  0  0  0  0  0  0  0
    4.1400   -1.1300   -0.9200 C   0  0  0  0  0  0  0  0  0  0  0  0
    2.0100   -2.3100   -0.3300 C   0  0  0  0  0  0  0  0  0  0  0  0
    2.4200   -3.4100   -1.0200 O   0  0  0  0  0  0  0  0  0  0  0  0
    1.8900   -4.6500   -0.5400 C   0  0  0  0  0  0  0  0  0  0  0  0
    1.2400   -2.3200    0.6200 O   0  0  0  0  0  0  0  0  0  0  0  0
    2.5400    1.1000   -0.7400 H   0  0  0  0  0  0  0  0  0  0  0  0
    2.4700    0.2300    0.8100 H   0  0  0  0  0  0  0  0  0  0  0  0
    4.5100   -1.2500    0.1000 H   0  0  0  0  0  0  0  0  0  0  0  0
    4.5100   -1.9800   -1.5100 H   0  0  0  0  0  0  0  0  0  0  0  0
    4.5900   -0.2200   -1.3400 H   0  0  0  0  0  0  0  0  0  0  0  0
    2.1400   -4.7900    0.5100 H   0  0  0  0  0  0  0  0  0  0  0  0
    0.8100   -4.6800   -0.7000 H   0  0  0  0  0  0  0  0  0  0  0  0
    2.3600   -5.4500   -1.1200 H   0  0  0  0  0  0  0  0  0  0  0  0
  1  2  1  0  0  0  0
  2 11  1  0  0  0  0
  3  5  1  0  0  0  0
  3  6  1  0  0  0  0
  3  2  1  0  0  0  0
  4  3  1  0  0  0  0
  5 12  1  0  0  0  0
  6  9  2  0  0  0  0
  7  8  1  0  0  0  0
  7  6  1  0  0  0  0
  8 15  1  0  0  0  0
 10  2  1  0  0  0  0
 13  5  1  0  0  0  0
 14  5  1  0  0  0  0
 16  8  1  0  0  0  0
 17  8  1  0  0  0  0
M  END
