343
*****
O         11.21600      -16.14260       16.48590
C         10.64070      -15.82740       17.74350
C         10.78230      -14.33040       17.98240
C         10.04840      -14.06770       19.31940
O         12.12850      -13.82950       18.04690
C         13.19320      -14.31650       17.17280
C         13.22840      -13.87080       15.66360
C         13.03720      -12.34640       15.61120
O         14.45800      -14.01730       14.91240
C         15.15710      -15.23280       14.63870
C         14.50960      -16.28920       13.74460
C         14.49730      -15.83240       12.20650
O         15.27170      -17.46640       13.60940
C         15.35240      -18.33360       14.72390
C         14.00510      -18.89310       15.27020
C         13.46760      -19.73250       14.05370
O         14.40040      -19.51920       16.50940
C         13.63500      -19.83920       17.70810
C         13.02890      -18.76590       18.76350
C         12.02730      -19.11430       19.93570
O         14.17810      -18.18540       19.37520
C         14.23450      -18.08010       20.79790
C         15.59660      -17.60090       21.21130
C         16.13990      -16.67490       20.10160
O         15.41880      -16.96920       22.50300
C         16.41650      -15.97200       22.82750
C         16.03880      -15.19940       24.16420
C         17.35010      -14.32000       24.29540
O         14.96320      -14.24850       24.35760
C         13.57870      -14.20210       23.90900
C         12.31920      -14.72910       24.83720
C         12.55480      -14.40540       26.33070
O         10.89570      -14.80940       24.31150
C          9.74410      -13.87400       24.13860
C          8.42510      -14.54790       23.18690
C          8.12150      -15.90540       23.86630
O          7.15490      -13.70450       23.05220
C          6.17710      -13.71300       21.81450
C          5.03660      -12.34330       21.76560
C          6.09190      -11.25540       22.12800
O          4.29840      -11.64670       20.65870
C          3.12890      -11.45550       19.71550
C          1.38340      -11.32670       19.83110
C          1.13480      -10.36320       21.03870
O          0.35890      -10.79260       18.82650
C         -0.27480      -10.67050       17.45810
C         -1.16060      -11.78980       16.46050
C         -2.14800      -12.45600       17.47690
O         -2.08720      -11.55120       15.27510
C         -2.47920      -11.06560       13.89010
C         -1.80100      -11.28330       12.28940
C         -1.55550      -12.82780       12.25020
O         -2.37560      -11.05880       10.89340
C         -2.99570      -10.28220        9.75150
C         -2.52590       -8.88920        8.76600
C         -1.00740       -9.04090        8.59990
O         -2.96210       -8.67070        7.24450
C         -4.06090       -7.77500        6.70300
C         -4.01390       -6.95130        5.11180
C         -2.74580       -7.20130        4.31770
O         -5.21540       -7.21640        4.21080
C         -5.24900       -6.77310        2.76440
C         -6.39240       -7.56820        1.85750
C         -7.73770       -7.01520        2.38980
O         -6.17650       -7.42960        0.39510
C         -6.74080       -8.28530       -0.70260
C         -6.12090       -9.78550       -1.05140
C         -7.21200      -10.80600       -0.68850
O         -5.57840      -10.01450       -2.43370
C         -5.14340      -11.37940       -2.82900
C         -3.66180      -11.72180       -3.50400
C         -3.74290      -11.06490       -4.92450
O         -2.34320      -11.40170       -2.88320
C         -1.52800      -12.39330       -2.03520
C          0.19000      -12.12510       -1.95450
C          0.42440      -10.63910       -2.28940
O          1.30120      -12.88840       -1.19730
C          1.83050      -13.05490        0.22970
C          3.04230      -14.34920        0.41840
C          4.16900      -13.89820       -0.58990
O          3.88000      -14.84200        1.56300
C          4.13470      -15.36010        2.94670
C          3.62250      -16.77510        3.80890
C          3.87180      -17.92420        2.78780
O          4.14660      -17.42410        5.07140
C          4.57910      -17.50080        6.51030
C          3.80620      -17.16410        8.01040
C          2.42530      -17.87450        7.86060
O          4.16760      -17.59930        9.41650
C          5.04840      -17.64640       10.63440
C          5.78350      -16.44150       11.55940
C          4.66320      -15.38550       11.81270
O          6.43920      -16.46990       12.91810
C          7.20420      -17.17820       13.96080
C          8.85720      -17.44110       14.06710
C          9.59880      -16.07470       13.88650
O          9.36000      -18.60180       14.98770
C         10.03150      -18.77530       16.34980
C         10.27430      -20.45590       16.93260
C         11.10310      -21.15690       15.87610
O         10.65810      -20.77370       18.39800
C         11.61310      -21.73940       19.14410
C         11.25510      -22.04790       20.88720
C         10.58510      -23.41440       20.72730
O         12.44120      -22.05630       21.81750
C         12.69200      -21.85300       23.31660
C         12.39510      -20.57890       24.36380
C         11.04120      -20.72630       25.09040
O         13.55980      -20.08710       25.20430
C         13.94440      -20.40080       26.58580
C         15.18660      -19.48360       27.21330
C         15.49840      -19.76230       28.72950
O         16.31580      -19.06940       26.39570
C         17.44420      -19.81760       25.83320
C         18.18890      -18.81120       24.75760
C         18.66360      -17.60490       25.64860
O         19.36540      -19.03440       23.93230
C         19.90460      -19.80590       22.82050
C         19.36860      -20.07810       21.27880
C         18.92600      -18.77710       20.65010
O         20.41430      -20.59610       20.35170
C         20.14920      -21.45750       19.16020
C         19.36000      -20.97680       17.84630
C         20.10000      -19.81250       17.19440
O         19.20410      -21.81510       16.66780
C         18.80010      -23.17100       16.51280
C         17.30910      -23.58710       16.61070
C         16.41300      -22.86770       15.57930
O         16.97730      -24.96700       16.32850
C         17.78060      -26.04050       16.79740
C         17.68830      -26.35580       18.30400
C         16.25380      -26.67950       18.73700
O         18.44060      -27.51480       18.71290
C         19.80130      -27.62240       18.30190
C         20.73100      -26.58500       18.94700
C         22.19240      -26.92540       18.67580
O         20.44880      -25.30020       18.40070
H         21.25450      -24.75800       18.42230
H         10.47580      -16.39430       15.91930
H          9.58610      -16.11290       17.72750
H         11.14160      -16.40580       18.51540
H         10.26070      -13.78570       17.17940
H         10.56180      -14.52570       20.15600
H          9.93880      -12.99930       19.52460
H          9.02200      -14.47990       19.28320
H         14.10260      -13.92020       17.63610
H         13.29720      -15.40120       17.27250
H         12.41790      -14.33890       15.09900
H         13.85180      -11.84280       16.15080
H         13.09720      -11.98370       14.57650
H         12.08690      -12.02790       16.03960
H         16.08900      -14.90400       14.15110
H         15.48880      -15.68050       15.57790
H         13.50090      -16.48940       13.98950
H         15.24650      -16.36910       11.60130
H         13.53090      -16.09960       11.76140
H         14.65440      -14.76260       12.06410
H         15.94760      -19.21800       14.39120
H         15.95390      -17.90010       15.52230
H         13.30570      -18.07950       15.46590
H         13.84030      -20.76170       14.01760
H         12.37760      -19.74260       13.99530
H         13.73990      -19.27370       13.08580
H         12.95190      -20.61980       17.43550
H         14.41030      -20.36480       18.28690
H         12.53730      -18.00160       18.16700
H         12.42700      -19.87080       20.62310
H         11.84260      -18.24620       20.59500
H         10.99760      -19.34380       19.69320
H         13.49260      -17.36740       21.18070
H         14.08360      -19.04410       21.31220
H         16.22690      -18.48990       21.30330
H         15.60180      -15.72470       20.11220
H         17.20480      -16.48430       20.23590
H         16.04910      -17.11360       19.10020
H         17.35360      -16.52760       22.96370
H         16.48130      -15.26260       22.03310
H         16.02340      -15.91770       24.98690
H         17.49440      -13.74370       23.38140
H         17.25270      -13.61060       25.13490
H         18.22270      -14.96430       24.46560
H         13.42090      -13.12340       23.90580
H         13.50070      -14.54440       22.88480
H         12.52570      -15.80400       24.83070
H         12.60990      -13.33420       26.54690
H         11.80150      -14.85680       26.98410
H         13.52920      -14.82190       26.64300
H          9.28560      -13.61070       25.10690
H         10.07480      -12.94880       23.65860
H          8.82850      -14.73120       22.18620
H          7.57490      -15.76860       24.80640
H          7.52430      -16.56750       23.23320
H          9.04450      -16.45280       24.10880
H          6.79030      -13.70420       20.91200
H          5.59170      -14.64170       21.86520
H          4.35650      -12.46370       22.62060
H          6.82690      -11.19160       21.31010
H          5.64770      -10.26830       22.24940
H          6.64010      -11.49120       23.04300
H          3.33890      -10.41650       19.40940
H          3.34150      -12.04670       18.82590
H          1.01770      -12.31220       20.13030
H          1.39260       -9.32640       20.77210
H          0.07020      -10.32610       21.31690
H          1.70740      -10.63280       21.92870
H         -1.09790       -9.97170       17.70560
H          0.37950      -10.07070       16.82250
H         -0.44320      -12.55250       16.14950
H         -2.97080      -11.77060       17.73110
H         -2.62790      -13.34490       17.04890
H         -1.66240      -12.74900       18.41410
H         -3.42490      -11.62760       13.76810
H         -2.80260      -10.02970       13.98270
H         -0.82790      -10.78930       12.30570
H         -2.50460      -13.36860       12.11020
H         -0.92400      -13.11140       11.40090
H         -1.09190      -13.20940       13.16560
H         -2.93650      -11.05200        8.96100
H         -4.06970      -10.20400        9.94310
H         -2.76060       -7.97350        9.31950
H         -0.78990       -9.78530        7.82090
H         -0.55390       -8.10350        8.25840
H         -0.51340       -9.35400        9.52260
H         -4.93430       -8.42330        6.61180
H         -4.27240       -6.98960        7.44020
H         -4.06170       -5.87220        5.35500
H         -2.82840       -8.14080        3.76590
H         -2.59370       -6.40270        3.57020
H         -1.85970       -7.21390        4.94870
H         -5.47010       -5.68910        2.71800
H         -4.28490       -6.91480        2.27000
H         -6.31440       -8.62810        2.10200
H         -7.97300       -6.01730        1.99040
H         -8.59110       -7.66290        2.18030
H         -7.69800       -6.90250        3.48520
H         -7.84040       -8.32640       -0.60700
H         -6.58380       -7.68490       -1.61160
H         -5.29270       -9.94510       -0.36900
H         -8.12930      -10.61060       -1.23750
H         -6.93260      -11.84220       -0.89200
H         -7.42220      -10.72760        0.38560
H         -5.33490      -12.10960       -2.05020
H         -5.87340      -11.65000       -3.62860
H         -3.66500      -12.79850       -3.72990
H         -3.89360       -9.98380       -4.83730
H         -2.83020      -11.19770       -5.50950
H         -4.57340      -11.46390       -5.53710
H         -1.91830      -12.26510       -1.03110
H         -1.70880      -13.41610       -2.39040
H          0.44000      -12.57680       -2.92760
H         -0.08700       -9.99230       -1.57060
H          1.47650      -10.35970       -2.34820
H         -0.02730      -10.40670       -3.27410
H          2.33000      -12.13590        0.57890
H          0.98460      -13.28750        0.87150
H          2.57620      -15.23130       -0.03490
H          4.74900      -13.06330       -0.17090
H          4.89700      -14.69910       -0.77680
H          3.78380      -13.57220       -1.56310
H          5.21620      -15.58160        2.86310
H          4.09920      -14.51230        3.63020
H          2.54540      -16.66920        3.93610
H          4.93750      -18.18760        2.72180
H          3.35810      -18.85040        3.09120
H          3.52740      -17.68170        1.77190
H          4.69550      -18.60210        6.60160
H          5.61420      -17.14810        6.56620
H          3.63690      -16.08900        8.04230
H          2.53270      -18.96390        7.96830
H          1.72750      -17.56930        8.64660
H          1.95240      -17.68440        6.88840
H          4.33290      -18.04910       11.37380
H          5.75840      -18.46330       10.50090
H          6.53110      -15.98270       10.90850
H          3.98450      -15.74100       12.59690
H          5.09450      -14.44960       12.20110
H          4.08830      -15.16420       10.92230
H          7.11290      -16.43340       14.77430
H          6.64970      -18.05230       14.33830
H          9.05330      -17.91040       13.09560
H          9.43330      -15.34290       14.69150
H         10.68590      -16.18340       13.74270
H          9.23220      -15.56500       12.97530
H         11.04540      -18.36160       16.29150
H          9.44190      -18.28010       17.11870
H          9.29080      -20.78440       16.89200
H         12.14590      -20.82560       15.81100
H         11.13850      -22.23970       16.00230
H         10.68780      -20.94420       14.85250
H         11.73250      -22.68610       18.59420
H         12.63410      -21.35200       19.21010
H         10.55450      -21.28740       21.22530
H         11.32620      -24.19720       20.49720
H          9.99480      -23.72880       21.57330
H          9.90880      -23.38600       19.84300
H         12.51480      -22.78100       23.88210
H         13.78960      -21.79140       23.28270
H         12.25550      -19.71680       23.70580
H         10.95260      -21.64790       25.67730
H         10.81630      -19.89120       25.76810
H         10.23500      -20.75290       24.34220
H         13.09380      -20.21730       27.26650
H         14.21780      -21.45550       26.68050
H         14.69530      -18.50250       27.31250
H         15.68460      -20.81620       28.95820
H         16.35170      -19.18530       29.11840
H         14.63930      -19.46670       29.35890
H         18.14050      -20.09160       26.64100
H         17.08280      -20.71320       25.33470
H         17.39970      -18.43970       24.10770
H         19.43960      -17.91180       26.36550
H         19.12730      -16.81760       25.04420
H         17.85450      -17.14910       26.23030
H         20.85620      -19.26880       22.64950
H         20.22200      -20.76790       23.22270
H         18.56950      -20.81650       21.34210
H         19.78210      -18.10990       20.50820
H         18.49370      -18.94010       19.65670
H         18.20960      -18.27660       21.28750
H         21.16610      -21.69870       18.80820
H         19.74270      -22.40590       19.51860
H         18.36630      -20.64100       18.14420
H         21.03390      -20.17190       16.69210
H         19.49930      -19.36950       16.37880
H         20.38360      -19.02000       17.87730
H         19.10810      -23.42900       15.48650
H         19.42430      -23.78710       17.14220
H         16.93120      -23.34160       17.61180
H         16.62210      -23.22070       14.55640
H         15.36030      -23.13510       15.75290
H         16.50440      -21.77940       15.60500
H         17.44630      -26.93380       16.25020
H         18.80760      -25.88630       16.46250
H         18.01420      -25.48390       18.88010
H         16.02640      -27.74560       18.60000
H         16.14620      -26.48950       19.81190
H         15.49980      -26.08900       18.21240
H         20.12530      -28.62450       18.60280
H         19.86300      -27.59420       17.20840
H         20.54260      -26.52720       20.02410
H         22.83600      -26.04270       18.75460
H         22.31850      -27.31860       17.66060
H         22.54980      -27.68100       19.38010
