input_GMX.gro created by acpype (v: 2022.7.21) on Fri Sep 15 04:04:46 2023
 OpenBabel09152313043D

 14 14  0  0  0  0  0  0  0  0999 V2000
   -1.4200    0.0200    0.1800 O   0  0  0  0  0  0  0  0  0  0  0  0
   -0.7400   -1.1700   -0.2600 C   0  0  0  0  0  0  0  0  0  0  0  0
    0.7000   -1.1800    0.2600 C   0  0  0  0  0  0  0  0  0  0  0  0
    1.4100   -0.0100   -0.1800 O   0  0  0  0  0  0  0  0  0  0  0  0
    0.7300    1.1700    0.2600 C   0  0  0  0  0  0  0  0  0  0  0  0
   -0.7100    1.1800   -0.2600 C   0  0  0  0  0  0  0  0  0  0  0  0
   -1.2900   -2.0400    0.1200 H   0  0  0  0  0  0  0  0  0  0  0  0
   -0.7600   -1.1900   -1.3500 H   0  0  0  0  0  0  0  0  0  0  0  0
    0.7200   -1.2000    1.3600 H   0  0  0  0  0  0  0  0  0  0  0  0
    1.2300   -2.0600   -0.1100 H   0  0  0  0  0  0  0  0  0  0  0  0
    0.7500    1.1900    1.3600 H   0  0  0  0  0  0  0  0  0  0  0  0
    1.2800    2.0400   -0.1100 H   0  0  0  0  0  0  0  0  0  0  0  0
   -0.7300    1.2100   -1.3500 H   0  0  0  0  0  0  0  0  0  0  0  0
   -1.2400    2.0600    0.1200 H   0  0  0  0  0  0  0  0  0  0  0  0
  2  7  1  0  0  0  0
  2  1  1  0  0  0  0
  2  3  1  0  0  0  0
  3  9  1  0  0  0  0
  4  5  1  0  0  0  0
  4  3  1  0  0  0  0
  5 11  1  0  0  0  0
  6 14  1  0  0  0  0
  6  1  1  0  0  0  0
  6  5  1  0  0  0  0
  8  2  1  0  0  0  0
 10  3  1  0  0  0  0
 12  5  1  0  0  0  0
 13  6  1  0  0  0  0
M  END
