12
*****
O          0.93960        0.01650       -0.06140
C          0.47260       -0.53460        1.16560
C          0.95980       -1.96990        1.28930
C          0.95980        0.32690        2.32050
H          1.91250        0.00810       -0.04270
H         -0.62210       -0.52080        1.13530
H          2.05450       -2.01640        1.27690
H          0.60040       -2.43270        2.21330
H          0.61010       -2.56640        0.43990
H          0.61010        1.35810        2.20200
H          0.60050       -0.05610        3.28030
H          2.05450        0.36710        2.34710
