83
*****
O         -0.16720       -7.11690       -0.91130
C          0.79580       -6.92320        0.11850
C          2.01590       -7.85700       -0.00090
C          1.51790       -9.30410       -0.11910
O          2.87190       -7.64050       -1.13360
C          3.42850       -6.35040       -1.40200
C          4.48970       -5.77880       -0.42670
C          5.69230       -6.72280       -0.28420
O          5.10150       -4.54570       -0.85750
C          4.29360       -3.43600       -1.22560
C          3.56950       -2.73040       -0.07040
C          4.57190       -2.08390        0.89860
O          2.72760       -1.65910       -0.52420
C          1.50460       -2.00280       -1.18130
C          0.46930       -2.73700       -0.30510
C          0.31790       -2.17020        1.10000
O         -0.80530       -3.00480       -0.89880
C         -1.52090       -2.00980       -1.63580
C         -2.63090       -1.26180       -0.86510
C         -2.17180       -0.08500       -0.02330
O         -3.73090       -0.88910       -1.72820
C         -3.62470        0.25270       -2.59290
C         -2.92560       -0.03310       -3.93990
C         -3.79160       -0.95730       -4.80470
O         -2.68410        1.13020       -4.74250
C         -1.77780        2.11530       -4.25030
C         -0.31000        1.66800       -4.08470
C          0.24740        1.05440       -5.36790
O          0.56560        2.75710       -3.75300
C          0.33450        3.43280       -2.51780
C          0.50370        2.56590       -1.26420
C          1.88880        1.95150       -1.13580
O          0.21040        3.35130       -0.10990
H          0.50550        2.85940        0.67620
H          0.25530       -6.89180       -1.75840
H          1.09670       -5.87500        0.10920
H          0.28330       -7.11200        1.06760
H          2.62300       -7.76070        0.90680
H          1.00880       -9.47040       -1.07520
H          2.36030      -10.00160       -0.08830
H          0.83320       -9.56240        0.70750
H          3.90670       -6.44690       -2.38420
H          2.61320       -5.63970       -1.54850
H          4.05090       -5.62960        0.56320
H          6.24920       -6.78750       -1.22830
H          6.40310       -6.31630        0.44700
H          5.40960       -7.72990        0.02900
H          4.97920       -2.70680       -1.69130
H          3.61650       -3.71490       -2.03760
H          2.97960       -3.44640        0.50480
H          4.11370       -1.24880        1.44220
H          4.93950       -2.81050        1.62920
H          5.43970       -1.67140        0.37130
H          1.08630       -1.04640       -1.50800
H          1.70550       -2.56480       -2.09910
H          0.88040       -3.73910       -0.15240
H         -0.68500       -2.35480        1.49840
H          1.03510       -2.63740        1.78300
H          0.52370       -1.09660        1.12400
H         -0.84890       -1.33500       -2.16330
H         -2.03080       -2.58830       -2.41800
H         -3.05920       -1.98610       -0.16200
H         -1.81410        0.73590       -0.62950
H         -2.99750        0.30040        0.58800
H         -1.35510       -0.33530        0.65970
H         -4.65650        0.56550       -2.80500
H         -3.19270        1.10480       -2.07070
H         -1.97660       -0.53680       -3.77480
H         -4.36890       -0.39320       -5.54640
H         -3.14820       -1.64430       -5.36560
H         -4.48360       -1.56580       -4.21480
H         -1.80210        2.94280       -4.96980
H         -2.17150        2.53840       -3.32260
H         -0.23000        0.90360       -3.30580
H          1.32350        1.25030       -5.47200
H          0.09880       -0.02930       -5.38300
H         -0.23660        1.46850       -6.26150
H          1.04830        4.26430       -2.47180
H         -0.65130        3.90950       -2.52600
H         -0.21890        1.75370       -1.29510
H          2.64490        2.72080       -0.94900
H          1.91490        1.26940       -0.27840
H          2.16470        1.38420       -2.02940
