input_GMX.gro created by acpype (v: 2023.10.27) on Tue Sep  3 05:19:37 2024
 OpenBabel09032405193D

 10  9  0  0  0  0  0  0  0  0999 V2000
    1.1000    0.0700   -0.0300 C   0  0  0  0  0  0  0  0  0  0  0  0
    0.5700   -0.1000    1.3900 C   0  0  0  0  0  0  0  0  0  0  0  0
    1.0900    0.9600    2.2100 O   0  0  0  0  0  0  0  0  0  0  0  0
    0.6900    1.3300   -0.5600 O   0  0  0  0  0  0  0  0  0  0  0  0
    0.7200   -0.7300   -0.6800 H   0  0  0  0  0  0  0  0  0  0  0  0
    2.1900    0.0500   -0.0400 H   0  0  0  0  0  0  0  0  0  0  0  0
   -0.5200   -0.0100    1.4100 H   0  0  0  0  0  0  0  0  0  0  0  0
    0.8600   -1.0600    1.8200 H   0  0  0  0  0  0  0  0  0  0  0  0
    2.0500    0.7900    2.3200 H   0  0  0  0  0  0  0  0  0  0  0  0
    0.7300    1.9600    0.1900 H   0  0  0  0  0  0  0  0  0  0  0  0
  1  2  1  0  0  0  0
  2  7  1  0  0  0  0
  2  8  1  0  0  0  0
  2  3  1  0  0  0  0
  3  9  1  0  0  0  0
  4  1  1  0  0  0  0
  4 10  1  0  0  0  0
  5  1  1  0  0  0  0
  6  1  1  0  0  0  0
M  END
