input_GMX.gro created by acpype (v: 2022.7.21) on Sat Jun  8 18:03:58 2024
 OpenBabel06092403043D

  6  5  0  0  0  0  0  0  0  0999 V2000
    0.9000    0.0100   -0.0200 C   0  0  0  0  0  0  0  0  0  0  0  0
    0.4300   -1.2100   -0.5600 O   0  0  0  0  0  0  0  0  0  0  0  0
    0.5400    0.1100    1.0000 H   0  0  0  0  0  0  0  0  0  0  0  0
    0.5300    0.8500   -0.6200 H   0  0  0  0  0  0  0  0  0  0  0  0
    2.0000    0.0100   -0.0100 H   0  0  0  0  0  0  0  0  0  0  0  0
    0.7700   -1.2700   -1.4700 H   0  0  0  0  0  0  0  0  0  0  0  0
  1  5  1  0  0  0  0
  1  3  1  0  0  0  0
  2  1  1  0  0  0  0
  4  1  1  0  0  0  0
  6  2  1  0  0  0  0
M  END
