6
methanol_GMX.gro created by acpype (v: 2023.10.27) on Sun Jun 23 01:06:41 2024
C          1.03000       -0.04000        0.07000
O          0.56000       -0.38000       -1.22000
H          0.66000       -0.78000        0.79000
H          0.66000        0.95000        0.35000
H          2.12000       -0.05000        0.07000
H          0.90000        0.29000       -1.83000
