methanol_GMX.gro created by acpype (v: 2023.10.27) on Sun Jun 23 01:06:41 2024
 OpenBabel06232401073D

  6  5  0  0  0  0  0  0  0  0999 V2000
    1.0300   -0.0400    0.0700 C   0  0  0  0  0  0  0  0  0  0  0  0
    0.5600   -0.3800   -1.2200 O   0  0  0  0  0  0  0  0  0  0  0  0
    0.6600   -0.7800    0.7900 H   0  0  0  0  0  0  0  0  0  0  0  0
    0.6600    0.9500    0.3500 H   0  0  0  0  0  0  0  0  0  0  0  0
    2.1200   -0.0500    0.0700 H   0  0  0  0  0  0  0  0  0  0  0  0
    0.9000    0.2900   -1.8300 H   0  0  0  0  0  0  0  0  0  0  0  0
  1  5  1  0  0  0  0
  1  4  1  0  0  0  0
  1  3  1  0  0  0  0
  2  1  1  0  0  0  0
  6  2  1  0  0  0  0
M  END
