123
*****
O         -1.71280       -6.55100       -8.87880
C         -0.60360       -7.21400       -9.47360
C         -0.66130       -8.73940       -9.26500
C          0.44630       -9.36300      -10.12980
O         -0.41810       -9.20830       -7.93010
C         -1.11760       -8.64750       -6.81110
C         -2.62070       -8.99520       -6.66340
C         -2.80010      -10.52410       -6.64770
O         -3.25480       -8.57720       -5.44110
C         -3.16380       -7.23520       -4.96420
C         -4.02900       -6.17470       -5.68490
C         -5.52780       -6.51980       -5.58220
O         -3.94090       -4.87690       -5.07520
C         -2.77820       -4.06860       -5.24010
C         -2.47280       -3.54740       -6.65970
C         -3.71630       -2.98390       -7.35620
O         -1.53960       -2.45020       -6.58570
C         -0.15830       -2.76230       -6.78660
C          0.72360       -2.43860       -5.55300
C          0.51890       -0.98650       -5.12260
O          0.38840       -3.34120       -4.48050
C          1.49790       -3.90860       -3.76030
C          1.20670       -5.39520       -3.37630
C          0.92750       -6.16830       -4.66830
O          2.36760       -5.94230       -2.71590
C          2.16010       -6.87870       -1.63020
C          3.39230       -6.77070       -0.67230
C          3.29420       -5.40940        0.02890
O          3.45010       -7.69020        0.41880
C          4.22970       -8.88770        0.40940
C          5.62880       -9.02300       -0.24230
C          6.66860       -8.01920        0.25990
O          6.18220      -10.30400        0.13420
C          6.00820      -11.39260       -0.77020
C          5.08090      -12.51590       -0.23520
C          5.31410      -12.76780        1.25910
O          3.67040      -12.29310       -0.38210
C          3.16450      -12.02170       -1.68780
C          3.21680      -13.19330       -2.69210
C          2.22430      -14.30720       -2.35090
O          2.92660      -12.72960       -4.03440
C          4.08290      -12.14620       -4.63530
C          3.96510      -11.87300       -6.14680
C          2.85700      -10.87270       -6.48500
O          5.20190      -11.30650       -6.62690
C          6.28000      -12.24360       -6.68110
C          7.56010      -11.56310       -7.17360
C          7.99050      -10.39540       -6.29120
O          8.60640      -12.53850       -7.20360
H          9.43790      -12.07450       -7.40150
H         -2.46000       -6.63870       -9.49640
H         -0.61200       -6.97050      -10.54320
H          0.31680       -6.79670       -9.04610
H         -1.63400       -9.12300       -9.59440
H          1.43760       -9.07880       -9.75220
H          0.40630      -10.45540      -10.10530
H          0.38410       -9.04120      -11.17860
H         -0.60490       -9.05050       -5.93050
H         -0.95080       -7.56880       -6.76880
H         -3.18560       -8.59480       -7.50800
H         -2.30590      -10.96310       -5.77010
H         -3.86180      -10.78580       -6.55170
H         -2.40480      -11.01000       -7.54420
H         -3.52580       -7.28820       -3.92850
H         -2.12190       -6.93060       -4.87560
H         -3.75580       -6.11410       -6.74160
H         -6.11610       -5.67390       -5.19760
H         -5.93460       -6.77240       -6.56520
H         -5.72190       -7.36980       -4.91990
H         -2.94930       -3.19030       -4.60530
H         -1.91280       -4.57480       -4.80930
H         -2.07940       -4.36250       -7.27730
H         -3.78560       -1.89530       -7.24620
H         -3.65500       -3.18050       -8.43340
H         -4.64900       -3.42980       -7.00300
H         -0.01860       -3.80140       -7.09510
H          0.17330       -2.12370       -7.61750
H          1.77010       -2.57690       -5.85150
H         -0.50460       -0.80160       -4.79290
H          1.17470       -0.73460       -4.27970
H          0.75060       -0.29330       -5.94500
H          2.42870       -3.86450       -4.33920
H          1.66390       -3.32090       -2.84970
H          0.32200       -5.43070       -2.72900
H          1.82820       -6.20810       -5.29050
H          0.62790       -7.19900       -4.46540
H          0.13720       -5.69690       -5.26280
H          1.23430       -6.64320       -1.08600
H          2.05760       -7.89540       -2.02460
H          4.32990       -6.80020       -1.24610
H          3.98110       -5.31720        0.85950
H          3.46560       -4.60150       -0.67730
H          2.27860       -5.26880        0.44500
H          4.37110       -9.13220        1.47260
H          3.59110       -9.68810        0.03350
H          5.56480       -8.92910       -1.33190
H          7.62310       -8.18980       -0.26340
H          6.36990       -6.98540        0.08940
H          6.88550       -8.16110        1.32680
H          7.00800      -11.83760       -0.86470
H          5.73590      -11.05090       -1.77070
H          5.32880      -13.43860       -0.77300
H          4.67670      -12.12370        1.87610
H          5.04550      -13.80050        1.51150
H          6.35810      -12.61910        1.55220
H          2.11640      -11.72510       -1.55850
H          3.64670      -11.12490       -2.08180
H          4.21110      -13.65410       -2.68720
H          1.65200      -14.62710       -3.22860
H          2.76290      -15.18430       -1.97270
H          1.51570      -14.01220       -1.57050
H          4.34030      -11.21200       -4.12610
H          4.91580      -12.83480       -4.47440
H          3.75710      -12.79920       -6.69690
H          3.12210      -10.26370       -7.35840
H          1.91760      -11.38960       -6.70850
H          2.66560      -10.18050       -5.65840
H          6.48310      -12.67640       -5.69770
H          6.01490      -13.06910       -7.35250
H          7.39740      -11.20060       -8.19410
H          8.62450      -10.72800       -5.46410
H          8.59020       -9.69440       -6.88390
H          7.14180       -9.83720       -5.88650
