20
*****
C          1.22500       -1.37810       -1.90250
C          0.59550       -1.30660       -0.51930
C          1.05660       -2.46310        0.37060
C          0.48970       -2.40740        1.79450
C         -1.03560       -2.49490        1.85200
C         -1.54360       -2.49260        3.28560
H          2.31620       -1.30570       -1.84390
H          0.86240       -0.55260       -2.52500
H          0.96660       -2.31780       -2.40270
H          0.85610       -0.35020       -0.05220
H         -0.49300       -1.32660       -0.63840
H          0.78170       -3.41900       -0.09360
H          2.15310       -2.44820        0.43700
H          0.91870       -3.24000        2.36470
H          0.82650       -1.48440        2.28380
H         -1.48710       -1.64820        1.32700
H         -1.37460       -3.41030        1.35020
H         -1.23790       -1.57890        3.80710
H         -2.63740       -2.53690        3.29730
H         -1.16330       -3.35300        3.84130
