input_GMX.gro created by acpype (v: 2022.7.21) on Fri Sep 15 04:05:51 2023
 OpenBabel09152313063D

 24 24  0  0  1  0  0  0  0  0999 V2000
    1.3300    0.1100    0.1300 C   0  0  0  0  0  0  0  0  0  0  0  0
    0.4600   -0.8400    0.9700 C   0  0  2  0  0  0  0  0  0  0  0  0
    0.6800   -2.3400    0.7000 C   0  0  1  0  0  0  0  0  0  0  0  0
   -0.0800   -2.8300   -0.5500 C   0  0  1  0  0  0  0  0  0  0  0  0
   -1.5500   -2.3800   -0.4700 C   0  0  1  0  0  0  0  0  0  0  0  0
   -1.6500   -0.8700   -0.2100 C   0  0  1  0  0  0  0  0  0  0  0  0
   -0.9300   -0.4800    0.9500 O   0  0  0  0  0  0  0  0  0  0  0  0
   -1.1900   -0.1700   -1.3600 O   0  0  0  0  0  0  0  0  0  0  0  0
   -2.2400   -2.7300   -1.6800 O   0  0  0  0  0  0  0  0  0  0  0  0
    0.6100   -2.3500   -1.7200 O   0  0  0  0  0  0  0  0  0  0  0  0
    2.0700   -2.6500    0.5700 O   0  0  0  0  0  0  0  0  0  0  0  0
    1.0000    1.4700    0.3900 O   0  0  0  0  0  0  0  0  0  0  0  0
    1.2000   -0.0400   -0.9500 H   0  0  0  0  0  0  0  0  0  0  0  0
    2.4000   -0.0300    0.3500 H   0  0  0  0  0  0  0  0  0  0  0  0
    0.7700   -0.6600    2.0100 H   0  0  0  0  0  0  0  0  0  0  0  0
    0.2900   -2.9000    1.5600 H   0  0  0  0  0  0  0  0  0  0  0  0
   -0.0300   -3.9200   -0.6200 H   0  0  0  0  0  0  0  0  0  0  0  0
   -2.0300   -2.9100    0.3500 H   0  0  0  0  0  0  0  0  0  0  0  0
   -2.7000   -0.5900   -0.0700 H   0  0  0  0  0  0  0  0  0  0  0  0
   -1.1700    0.7700   -1.0800 H   0  0  0  0  0  0  0  0  0  0  0  0
   -2.1200   -1.9900   -2.3000 H   0  0  0  0  0  0  0  0  0  0  0  0
    0.0400   -1.6800   -2.1500 H   0  0  0  0  0  0  0  0  0  0  0  0
    2.2500   -2.6800   -0.3900 H   0  0  0  0  0  0  0  0  0  0  0  0
    1.0300    1.6000    1.3600 H   0  0  0  0  0  0  0  0  0  0  0  0
  1 14  1  0  0  0  0
  1 12  1  0  0  0  0
  1  2  1  0  0  0  0
  2 15  1  1  0  0  0
  3  2  1  0  0  0  0
  3 16  1  1  0  0  0
  4 17  1  6  0  0  0
  4  5  1  0  0  0  0
  4  3  1  0  0  0  0
  5  6  1  0  0  0  0
  5 18  1  1  0  0  0
  6 19  1  1  0  0  0
  6  7  1  0  0  0  0
  7  2  1  0  0  0  0
  8 20  1  0  0  0  0
  8  6  1  0  0  0  0
  9  5  1  0  0  0  0
 10  4  1  0  0  0  0
 11  3  1  0  0  0  0
 12 24  1  0  0  0  0
 13  1  1  0  0  0  0
 21  9  1  0  0  0  0
 22 10  1  0  0  0  0
 23 11  1  0  0  0  0
M  END
