343
*****
O         13.92340       12.81340       37.78360
C         12.53670       12.61550       37.63400
C         12.04320       11.27770       38.22650
C         10.55760       11.22580       37.74660
O         12.62210        9.98290       37.92260
C         13.99880        9.47880       38.00440
C         14.78680        9.25160       39.40270
C         14.02100        8.24130       40.28630
O         16.12150        8.66400       39.57760
C         17.34430        8.87430       38.88660
C         18.13950       10.17230       38.92170
C         19.09310       10.43310       40.21230
O         18.69930       10.54910       37.34890
C         18.30570       11.63440       35.93800
C         17.62430       13.38450       35.76870
C         18.41780       14.62980       36.62960
O         17.23150       14.19830       34.56450
C         16.54390       14.11220       33.23300
C         14.76880       14.01680       32.91670
C         13.99580       15.02630       33.81280
O         13.89860       13.14600       31.53190
C         12.21780       12.47000       31.12740
C         11.30480       10.45190       31.56440
C         11.23990        9.64800       33.23030
O          9.35560       10.31380       31.96290
C          7.92330       10.54020       30.75180
C          6.96120       11.89600       29.92090
C          7.97300       12.90140       29.19290
O          5.97890       11.70650       28.78000
C          4.65810       11.28250       28.20530
C          3.07730       11.04380       28.82770
C          2.70190       12.48580       29.34850
O          1.77270       10.61580       28.12420
C          0.93200        9.64050       27.26600
C          0.46150        7.93480       27.47870
C         -0.10470        7.98840       28.93980
O         -0.49150        6.90050       26.79900
C         -1.31810        6.19770       25.67210
C         -0.86730        5.08140       24.28110
C          0.04970        4.08690       25.04450
O         -1.74400        3.95610       23.39420
C         -2.56200        3.96090       21.96340
C         -2.70930        2.45640       20.79640
C         -2.94830        1.32090       21.74960
O         -3.85450        2.11530       19.67960
C         -3.88310        1.01660       18.38670
C         -3.97360       -0.80360       18.23600
C         -5.11730       -1.12550       19.25150
O         -4.33260       -1.81540       17.07860
C         -4.23970       -2.48690       15.67120
C         -2.93950       -3.31380       14.74460
C         -2.48900       -4.41740       15.76990
O         -2.88900       -4.12120       13.41700
C         -3.08430       -4.40350       11.90880
C         -2.63850       -3.55110       10.40710
C         -1.09350       -3.36560       10.61680
O         -2.68500       -3.90620        8.89880
C         -3.30350       -4.36860        7.56190
C         -4.71180       -3.85870        6.59780
C         -4.42570       -2.32280        6.43990
O         -5.22410       -4.20250        5.18130
C         -5.71410       -5.10690        4.03780
C         -6.94880       -6.37020        3.90610
C         -8.22240       -5.59840        4.40020
O         -7.52120       -7.09830        2.68260
C         -7.39830       -8.15610        1.58170
C         -6.64880       -9.76220        1.55260
C         -7.53160      -10.60550        2.46940
O         -6.33720      -10.59010        0.29290
C         -5.69130      -11.99900        0.42450
C         -4.11990      -12.52460       -0.13180
C         -4.20610      -12.14140       -1.65740
O         -2.67100      -12.38170        0.26280
C         -1.64510      -12.13560        1.36750
C         -0.62960      -13.29660        2.33740
C         -0.13900      -14.27180        1.22020
O          0.79480      -13.09400        3.16580
C          1.18430      -12.50830        4.61660
C          2.67870      -13.00920        5.59600
C          3.77500      -13.16920        4.49020
O          3.51720      -12.43190        6.80110
C          3.69730      -11.57930        8.08430
C          3.50780      -12.00560        9.82420
C          4.40200      -13.30080        9.93740
O          3.85630      -11.29590       11.15700
C          3.85790      -10.15200       12.19390
C          2.58220       -9.21400       12.99980
C          1.69150      -10.36590       13.58620
O          2.55730       -8.19820       14.16590
C          2.96990       -6.94370       14.96140
C          3.04210       -5.20730       14.58080
C          1.57500       -4.95930       14.07590
O          3.27250       -3.93820       15.43650
C          4.06470       -2.99820       16.37090
C          5.70600       -2.33190       16.35570
C          5.75010       -1.68890       14.92350
O          6.43730       -1.25260       17.19480
C          6.93690       -0.57890       18.49330
C          7.95190       -1.11620       19.85410
C          9.20490       -1.67120       19.08810
O          8.62870       -0.40320       21.05430
C          8.71220        0.50470       22.30540
C          7.86060        0.52180       23.87880
C          8.09320       -0.95810       24.33670
O          8.04280        1.26150       25.22950
C          8.20210        2.45820       26.19110
C          7.17860        3.86560       26.61990
C          5.78710        3.20350       26.72970
O          7.16490        4.78640       27.96470
C          8.04630        6.00100       28.37580
C          7.57180        7.30370       29.53480
C          6.62770        6.58610       30.60560
O          8.55940        8.21740       30.36820
C          9.81000        9.53260       30.26200
C          9.97890       11.56850       30.93680
C          8.86970       12.48540       31.90150
O         11.10210       11.86240       32.57710
C         12.86870       11.11350       32.62270
C         13.78960       11.43040       33.65100
C         13.32650       12.00420       34.90390
O         15.07890       10.95610       33.33870
C         15.88210       10.41070       34.35310
C         15.77580        8.88080       34.30230
C         16.25170        8.37730       32.95900
O         16.28620        7.92580       35.22480
C         17.48340        8.04250       35.95900
C         18.90520        7.37960       35.84430
C         18.81900        5.97580       35.24710
O         20.06250        8.03960       35.26300
C         20.35840        9.43930       35.51660
C         20.96190        9.96510       36.94650
C         22.43170        9.51180       37.16710
O         20.94480       11.38660       37.47070
C         19.92690       12.52110       37.48630
C         18.17160       12.56150       38.25100
C         17.06930       13.52990       38.73300
O         17.01880       11.79290       37.56390
H         16.38940       11.25690       38.06780
H         14.03120       13.29460       38.61950
H         12.01730       13.47180       38.08850
H         12.22650       12.74560       36.60340
H         12.06240       11.39760       39.30980
H         10.48250       10.89590       36.69950
H          9.97150       10.52760       38.34610
H         10.05870       12.20690       37.79790
H         13.88210        8.47240       37.56920
H         14.60690       10.01650       37.27620
H         14.82070       10.21560       39.90820
H         14.01360        7.23780       39.83130
H         14.56310        8.10190       41.23480
H         12.99860        8.53540       40.51570
H         18.02350        8.04510       39.13170
H         17.02500        8.83750       37.89250
H         17.34470       10.81170       39.28300
H         20.14040       10.68210       40.01690
H         18.71870       11.32760       40.76800
H         18.99650        9.68910       41.01300
H         19.19980       11.63540       35.29340
H         17.65010       10.94890       35.48640
H         16.63530       13.24890       36.18860
H         19.26770       15.07030       36.10240
H         17.71120       15.44420       36.84590
H         18.83410       14.47470       37.63770
H         16.79030       15.12220       32.86540
H         17.10550       13.37690       32.67010
H         14.91130       13.24820       33.63210
H         14.23780       16.07490       33.60820
H         12.91820       14.86960       33.82180
H         14.33380       14.89850       34.86400
H         11.76950       13.29440       31.76690
H         12.01360       12.84450       30.16510
H         11.77060        9.82670       30.79350
H         10.67880       10.31020       33.90120
H         10.73120        8.70000       33.16690
H         12.17400        9.48110       33.80430
H          8.21740       10.19210       29.75830
H          7.19800        9.86150       31.20260
H          6.41270       12.44890       30.68270
H          8.54130       12.40980       28.39070
H          7.44250       13.74070       28.72550
H          8.71500       13.39980       29.81290
H          4.48550       12.09900       27.47260
H          4.89900       10.43590       27.56150
H          3.18590       10.40200       29.70150
H          2.60300       13.20080       28.51570
H          1.73290       12.50170       29.86180
H          3.45610       12.89850       30.03040
H         -0.05930       10.12030       27.40260
H          1.16080        9.83600       26.21820
H          1.42000        7.41370       27.52400
H         -1.06670        8.52200       28.96130
H         -0.29640        6.99460       29.35690
H          0.57030        8.52270       29.62030
H         -1.86160        5.46300       26.30300
H         -2.11120        6.88100       25.35790
H         -0.28300        5.67170       23.57240
H         -0.56320        3.42810       25.67720
H          0.58910        3.43380       24.35340
H          0.77290        4.58790       25.69700
H         -3.58500        4.12540       22.32010
H         -2.22920        4.83600       21.39570
H         -1.77490        2.41650       20.22970
H         -3.85100        1.55470       22.32720
H         -3.14750        0.39430       21.20930
H         -2.10440        1.19770       22.42270
H         -4.88490        1.27920       17.99750
H         -3.17900        1.40160       17.64690
H         -3.03620       -1.18070       18.65160
H         -6.08120       -0.76120       18.86820
H         -5.24810       -2.20150       19.41950
H         -4.95110       -0.64540       20.21990
H         -4.90120       -3.36470       15.85040
H         -4.82930       -1.88410       14.97910
H         -2.13910       -2.57770       14.67260
H         -3.24390       -5.21550       15.84870
H         -1.56400       -4.92020       15.46380
H         -2.34230       -4.01150       16.77680
H         -2.43090       -5.29790       11.80620
H         -4.08290       -4.82650       11.78400
H         -3.10800       -2.57100       10.49450
H         -0.56420       -4.32440       10.50090
H         -0.64940       -2.69100        9.87540
H         -0.85430       -2.98500       11.61610
H         -2.49200       -4.05220        6.87000
H         -3.23160       -5.45730        7.52540
H         -5.56750       -3.97480        7.26290
H         -3.60050       -2.14770        5.73160
H         -5.28490       -1.77670        6.03270
H         -4.13960       -1.85640        7.38900
H         -6.16830       -4.33670        3.37360
H         -4.83850       -5.41340        3.46080
H         -6.69150       -7.13100        4.63930
H         -8.56450       -4.86940        3.64710
H         -9.07620       -6.26600        4.56750
H         -8.03060       -5.04290        5.32360
H         -8.47810       -8.42270        1.44930
H         -7.23440       -7.62290        0.63420
H         -5.64960       -9.57670        1.91360
H         -8.55940      -10.70340        2.08690
H         -7.16950      -11.62370        2.59880
H         -7.57540      -10.12620        3.44630
H         -5.98360      -12.53370        1.33260
H         -6.32870      -12.55500       -0.31610
H         -4.22590      -13.62840       -0.15660
H         -4.38440      -11.06540       -1.75100
H         -3.30640      -12.38640       -2.22970
H         -5.05170      -12.63740       -2.16660
H         -0.84340      -11.72580        0.72810
H         -1.98340      -11.30410        1.97800
H         -1.30350      -13.84080        3.00600
H          0.61490      -13.77370        0.59470
H          0.35080      -15.15750        1.63920
H         -0.94630      -14.60570        0.55750
H          1.38810      -11.46480        4.38370
H          0.32390      -12.64770        5.26740
H          2.47560      -14.03890        5.93150
H          3.96100      -12.19830        4.01810
H          4.74450      -13.51300        4.87860
H          3.46670      -13.87040        3.70530
H          4.80540      -11.47910        8.07050
H          3.34510      -10.56700        7.90350
H          2.46880      -12.32330        9.92100
H          5.47310      -13.04710        9.90350
H          4.25750      -13.82970       10.88870
H          4.21320      -14.01020        9.12360
H          4.25780      -10.70320       13.07300
H          4.67960       -9.48060       11.93960
H          2.02610       -8.74440       12.18780
H          2.19120      -10.85200       14.43860
H          0.73300      -10.00040       13.97290
H          1.48810      -11.14680       12.84480
H          2.14630       -6.92700       15.70930
H          3.83470       -7.20740       15.57280
H          3.71310       -5.12490       13.72600
H          0.86450       -4.98180       14.91670
H          1.44980       -3.97490       13.61020
H          1.24980       -5.72290       13.36030
H          3.48600       -2.06100       16.21840
H          3.80880       -3.26950       17.39650
H          6.36510       -3.20040       16.35180
H          5.13260       -0.77790       14.88210
H          6.75990       -1.37700       14.63340
H          5.36690       -2.37040       14.15500
H          7.62210        0.17530       18.04930
H          6.12170        0.03330       18.88140
H          7.41990       -1.96820       20.27930
H          9.79920       -0.84790       18.66230
H          9.88780       -2.22250       19.74500
H          8.92330       -2.32760       18.25670
H          9.73310        0.23470       22.65440
H          8.84350        1.53110       21.95770
H          6.80900        0.63810       23.61660
H          9.13840       -1.10770       24.65040
H          7.48000       -1.22600       25.20400
H          7.89200       -1.67590       23.53400
H          8.16380        1.92400       27.16210
H          9.24160        2.78870       26.13080
H          7.20090        4.55970       25.77630
H          5.75260        2.56090       27.62040
H          4.99070        3.94400       26.85350
H          5.56160        2.58150       25.85810
H          8.88770        5.53170       28.87780
H          8.32220        6.53860       27.47260
H          6.89440        8.00670       29.03250
H          7.14040        5.76030       31.11520
H          6.27040        7.25530       31.40490
H          5.72500        6.15590       30.14230
H         10.00810        8.87850       31.25320
H         10.68610        8.86890       29.95020
H         10.40060       12.05790       30.02160
H          9.07610       12.32530       32.96830
H          8.98770       13.54970       31.73600
H          7.80580       12.23950       31.93640
H         12.99050       10.03070       32.41840
H         13.41600       11.19970       31.63160
H         13.82080       12.31650       33.14720
H         13.15370       11.18430       35.57620
H         14.05910       12.69770       35.32010
H         12.40930       12.57320       34.67960
H         16.86660       10.71630       33.99180
H         15.66270       10.89010       35.31250
H         14.69070        8.72900       34.34080
H         16.36620        7.29220       33.00660
H         15.52970        8.62850       32.18150
H         17.22620        8.80550       32.70270
H         17.59590        9.07540       36.20330
H         17.12320        7.44420       36.81300
H         19.22650        7.24760       36.88850
H         19.79120        5.66300       34.85510
H         18.50980        5.24200       36.00250
H         18.09680        5.92870       34.42710
H         21.03150        9.74540       34.70470
H         19.42310        9.87110       35.24130
H         20.45020        9.36520       37.69910
H         23.08740       10.35040       37.43520
H         22.45560        8.83920       38.03580
H         22.88610        8.96770       36.33280
H         20.49110       13.33240       37.96270
H         19.98900       12.85670       36.44090
H         18.50790       12.26250       39.21540
H         16.19170       12.91120       39.03070
H         16.58110       14.12930       37.96290
H         17.30610       14.08250       39.62090
