input_GMX.gro created by acpype (v: 2023.10.27) on Sat Nov  2 08:11:19 2024
 OpenBabel11022408113D

  6  5  0  0  0  0  0  0  0  0999 V2000
    0.9200   -0.0600   -0.0900 C   0  0  0  0  0  0  0  0  0  0  0  0
    0.3200    0.8600    0.4300 O   0  0  0  0  0  0  0  0  0  0  0  0
    0.2900   -1.1200   -0.6900 N   0  0  0  0  0  0  0  0  0  0  0  0
    2.0200   -0.1400   -0.1300 H   0  0  0  0  0  0  0  0  0  0  0  0
    0.8000   -1.8800   -1.1200 H   0  0  0  0  0  0  0  0  0  0  0  0
   -0.7200   -1.1300   -0.6900 H   0  0  0  0  0  0  0  0  0  0  0  0
  1  2  2  0  0  0  0
  3  6  1  0  0  0  0
  3  1  1  0  0  0  0
  4  1  1  0  0  0  0
  5  3  1  0  0  0  0
M  END
