input_GMX.gro created by acpype (v: 2022.7.21) on Fri Sep 15 04:06:18 2023
 OpenBabel09152313063D

 11 10  0  0  0  0  0  0  0  0999 V2000
    0.9800   -0.0700    0.0700 C   0  0  0  0  0  0  0  0  0  0  0  0
    0.5100    1.0400    1.0000 C   0  0  0  0  0  0  0  0  0  0  0  0
    1.0100    2.3000    0.5700 O   0  0  0  0  0  0  0  0  0  0  0  0
    0.5600    0.1600   -1.3100 N   0  0  0  0  0  0  0  0  0  0  0  0
    0.6000   -1.0400    0.4100 H   0  0  0  0  0  0  0  0  0  0  0  0
    2.0800   -0.1200    0.0800 H   0  0  0  0  0  0  0  0  0  0  0  0
   -0.5800    1.1000    1.0200 H   0  0  0  0  0  0  0  0  0  0  0  0
    0.8600    0.8700    2.0300 H   0  0  0  0  0  0  0  0  0  0  0  0
    1.9900    2.2400    0.5600 H   0  0  0  0  0  0  0  0  0  0  0  0
   -0.4600    0.1400   -1.3500 H   0  0  0  0  0  0  0  0  0  0  0  0
    0.7900    1.1300   -1.5500 H   0  0  0  0  0  0  0  0  0  0  0  0
  1  6  1  0  0  0  0
  1  5  1  0  0  0  0
  1  2  1  0  0  0  0
  2  7  1  0  0  0  0
  2  8  1  0  0  0  0
  3  2  1  0  0  0  0
  4  1  1  0  0  0  0
  9  3  1  0  0  0  0
 10  4  1  0  0  0  0
 11  4  1  0  0  0  0
M  END
