11
*****
C          0.98340       -0.07540        0.06990
C          0.51050        1.04310        1.00520
O          1.01500        2.30390        0.56680
N          0.55750        0.16250       -1.31230
H          0.60190       -1.04290        0.41150
H          2.07710       -0.12080        0.07840
H         -0.58240        1.10330        1.02130
H          0.85980        0.86560        2.02720
H          1.98560        2.23720        0.55580
H         -0.46210        0.14260       -1.35200
H          0.79400        1.13120       -1.54630
